LAMMPS (27 Oct 2011)
units		real
atom_style	hybrid sphere dipole

lattice		fcc 4.934
Lattice spacing in x,y,z = 4.934 4.934 4.934
region		box block -3 3 -3 3 -3 3
create_box	1 box
Created orthogonal box = (-14.802 -14.802 -14.802) to (14.802 14.802 14.802)
create_atoms	1 box
Created 864 atoms

mass 		1 40.0
set		group all mass 40.0
  864 settings made for mass
set		group all dipole/random 98934 0.479 # moment/(e*angstrom)
  864 settings made for dipole/random
velocity	all create 303.15 87287
pair_style	dipole/sf 12. # rCut/angstrom
pair_coeff	* * 0.466 3.0 # epsilon_ij/(kcal/mol), sigma_ij/angstrom

neighbor	1 bin
neigh_modify	delay 0

fix		integrate all nve/sphere update dipole
fix 		thermostat all langevin 303.15 303.15 100.0 48279 omega yes
fix             removeMomentum all momentum 1 linear 1 1 1

compute		msd all msd com yes
fix 		msd all ave/time 1 1 100 c_msd[4] file wat.msd
variable	potEn equal pe/atoms

fix		potEn all ave/time 5 100 500 v_potEn file wat.potEn
variable	totEn equal etotal/atoms

fix		totEn all ave/time 5 100 500 v_totEn file wat.totEn
variable	watVol equal vol/atoms

variable	dens equal 2.99e-23*atoms*1e24/vol
fix		dens all ave/time 5 100 500 v_dens file wat.dens

variable	P equal press
fix 		P all ave/time 5 100 500 v_P file wat.press

thermo_style	custom step pe temp press v_watVol v_dens v_potEn c_msd[4]
thermo		100

dump		trj all custom 100 dump.trj id type x y z mux muy muz
dump_modify	trj sort id

timestep	10
run		500
Step PotEng Temp Press watVol dens potEn msd[4]
0   -3048.2118       303.15   -6504.9796    30.028763   0.99571201    -3.528023 3.2869204e-31
Loop time of 1.54067 on 8 procs for 500 steps with 864 atoms

Pair  time (%) = 1.11619 (72.4487)
Neigh time (%) = 0.0848225 (5.50556)
Comm  time (%) = 0.272516 (17.6882)
Outpt time (%) = 0.0186691 (1.21175)
Other time (%) = 0.0484654 (3.14574)

fix		baro all press/berendsen iso 1 1 500 modulus 21740
compute         rdf all rdf 50
fix             rdf all ave/time 1000 1 1000 c_rdf file wat.rdf mode vector

run		1000Memory usage per processor = 3.76229 Mbytes
Step PotEng Temp Press watVol dens potEn msd[4]
500   -6228.1217    306.63539     368.9081    30.028763   0.99571201   -7.2084742    3.6449558
Averages over the last 6 of 11 rows, steps 1000 to 1500:
PotEng Temp Press watVol dens potEn msd[4]
-6238 305.512 -87.1356 30.2958 0.986946 -7.21991 9.36258
Loop time of 3.05972 on 8 procs for 1000 steps with 864 atoms

Pair  time (%) = 2.20966 (72.2178)
Neigh time (%) = 0.166665 (5.44707)
Comm  time (%) = 0.540688 (17.6712)
Outpt time (%) = 0.0371193 (1.21316)
Other time (%) = 0.105585 (3.45081)
