LAMMPS (28 May 2012)
units		real
atom_style	hybrid sphere dipole

lattice		fcc 4.934
Lattice spacing in x,y,z = 4.934 4.934 4.934
region		box block -3 3 -3 3 -3 3
create_box	1 box
Created orthogonal box = (-14.802 -14.802 -14.802) to (14.802 14.802 14.802)
create_atoms	1 box
Created 864 atoms

mass 		1 40.0
set		group all mass 40.0 # g/mol
  864 settings made for mass
set		group all diameter 5.0 # => moment of inertia
  864 settings made for diameter
set		group all dipole/random 98934 0.541 # moment/(e*angstrom)
  864 settings made for dipole/random
velocity	all create 303.15 87287
pair_style	dipole/sf 12. # rCut/angstrom
pair_coeff	* * 0.550 3.05 # epsilon_ij/(kcal/mol), sigma_ij/angstrom

variable	Nnvt equal 1000
variable	Nnpt equal 1000
variable	Ntot equal 1000+1000
variable	Nthe equal 100
variable	Ndump equal 500
variable	Ne equal 10
variable	Nthe_e equal 100/10
variable	Nf equal 100

variable	watMoleMass equal 18.0 # /(g/mol)
variable	nAvog equal 6.0221415e23 # Avogadro's number

neighbor	1 bin
neigh_modify	delay 0

fix		integrate all nve/sphere update dipole
fix 		thermostat all langevin 303 303 500 9 omega yes zero yes
fix             removeMomentum all momentum 100 linear 1 1 1

compute		msd all msd com yes
fix 		msd all ave/time 1 1 100 c_msd[4] file wat.msd
variable	potEn equal pe/atoms

compute 	totT all temp/sphere dof all
fix		totT all ave/time 10 10 100 c_totT

#fix_modify	thermostat temp totT #redundant
#compute	totP all pressure totT #redundant

compute 	rotT all temp/sphere dof rotate
fix		rotT all ave/time 10 10 100 c_rotT

fix		potEn all ave/time 10 10 100 v_potEn file wat.potEn
variable	totEn equal etotal/atoms

fix		totEn all ave/time 10 10 100 v_totEn file wat.totEn

# Compute density in g/cm^3:
variable	dens equal atoms*2.9889699536286220708e-23/(vol*9.999999999999999237e-25)
fix		dens all ave/time 10 10 100 v_dens file wat.dens

variable	P equal press
fix 		P all ave/time 10 10 100 v_P file wat.press

thermo_style    custom step temp f_totT f_rotT press f_P pe v_potEn 		v_dens c_msd[4]
#thermo_modify	temp totT #norm yes # do not use: this command causes the
                                    # pressure computation to include a
                                    # contribution from the rotational temp
                                    # (instead of using the translational
                                    # temp only)
thermo		100

dump		trj all custom 500 dump.*.trj id type x y z mux muy muz
dump_modify	trj sort id pad 6

timestep	10
run		1000
Step Temp totT rotT Press P PotEng potEn dens msd[4]
0       303.15            0            0   -6593.8402            0   -3753.3669   -4.3441746   0.99536899 1.9334159e-27
Averages over the last 6 of 11 rows, steps 500 to 1000:
Temp totT rotT Press P PotEng potEn dens msd[4]
305.686 303.127 304.919 162.997 52.9075 -8040.52 -9.30616 0.995369 6.83907
Loop time of 20.436 on 1 procs for 1000 steps with 864 atoms

Pair  time (%) = 18.1918 (89.0185)
Neigh time (%) = 1.55706 (7.61921)
Comm  time (%) = 0.331985 (1.62451)
Outpt time (%) = 0.00759411 (0.0371604)
Other time (%) = 0.347551 (1.70068)

fix		barostat all press/berendsen iso 1 1 500 modulus 21740

compute         rdf all rdf 10
fix         	rdf all ave/time 2000 1 2000 c_rdf 		file wat.rdf mode vector

Step Temp totT rotT Press P PotEng potEn dens msd[4]
1000     309.2359    305.86453    308.15343    492.98247    302.28921   -8011.2629    -9.272295   0.99536899    8.9283255
Averages over the last 6 of 11 rows, steps 1500 to 2000:
Temp totT rotT Press P PotEng potEn dens msd[4]
309.141 304.464 303.527 33.7065 15.7203 -8037.45 -9.3026 0.99367 13.3123
Loop time of 20.2295 on 1 procs for 1000 steps with 864 atoms

Pair  time (%) = 17.9959 (88.9587)
Neigh time (%) = 1.53487 (7.58728)
Comm  time (%) = 0.312883 (1.54667)
Outpt time (%) = 0.00781775 (0.0386453)
Other time (%) = 0.378026 (1.86869)
