LAMMPS (25 Sep 2011)
units		real
atom_style	hybrid sphere dipole

lattice		fcc 4.93
Lattice spacing in x,y,z = 4.93 4.93 4.93
region		box block -3 3 -3 3 -3 3
create_box	1 box
Created orthogonal box = (-14.79 -14.79 -14.79) to (14.79 14.79 14.79)
create_atoms	1 box
Created 864 atoms

mass 		1 40.0
set		group all mass 40.0
  864 settings made for mass
set		group all dipole/random 98934 0.479 # moment/(e*angstrom)
  864 settings made for dipole/random
velocity	all create 303.15 87287
pair_style	dipole/sf 12. # rCut/angstrom
pair_coeff	* * 0.466 3.0 # epsilon_ij/(kcal/mol), sigma_ij/angstrom

neighbor	1 bin
neigh_modify	delay 0

fix		integrate all nve/sphere update dipole
fix 		thermostat all langevin 303.15 303.15 100.0 48279 omega yes
fix             removeMomentum all momentum 1 linear 1 1 1

compute		erot all erotate/sphere
thermo_style	custom step etotal pe epair c_erot press temp
thermo		100

dump		trj all custom 100 dump.trj id type x y z mux muy muz
dump_modify	trj sort id

timestep	10
run		1000
Step TotEng PotEng E_pair erot Press Temp
0   -2181.2631    -2961.098    -2961.098            0   -6194.9364       303.15
Averages over the last 6 of 11 rows, steps 500 to 1000:
TotEng PotEng E_pair erot Press Temp
-5496.43 -6278.92 -6278.92 776.157 191.026 304.181
Loop time of 2.84071 on 8 procs for 1000 steps with 864 atoms

Pair  time (%) = 1.89516 (66.7145)
Neigh time (%) = 0.133811 (4.71048)
Comm  time (%) = 0.719455 (25.3266)
Outpt time (%) = 0.0224779 (0.791278)
Other time (%) = 0.0698005 (2.45715)

fix		baro all press/berendsen aniso 1 1 500 modulus 22222
run		1000Memory usage per processor = 3.53341 Mbytes
Step TotEng PotEng E_pair erot Press Temp
1000   -5480.1335   -6258.7815   -6258.7815    732.49531    250.60424    302.68862
Averages over the last 6 of 11 rows, steps 1500 to 2000:
TotEng PotEng E_pair erot Press Temp
-5447.23 -6222.09 -6222.09 788.969 -39.4715 301.215
Loop time of 2.70725 on 8 procs for 1000 steps with 864 atoms

Pair  time (%) = 1.80748 (66.7645)
Neigh time (%) = 0.129324 (4.77695)
Comm  time (%) = 0.66516 (24.5696)
Outpt time (%) = 0.0222115 (0.820445)
Other time (%) = 0.083073 (3.06854)
