LAMMPS (14 Aug 2011)
units		real
atom_style	hybrid angle dipole sphere
read_data 	data.128dopc4232wat
  orthogonal box = (-34.0234 -34.0234 -31.763) to (34.0234 34.0234 31.763)
  6152 atoms
  2176 bonds
  1664 angles
include 	forcefield.dopc
pair_style dipole/sf 12
bond_style hybrid harmonic dipole
angle_style cosine/squared

#    type  mass [grams/mol]
mass    1   40.000 # water
mass    2   90.000 # choline
mass    3   90.000 # phosphate
mass    4   62.000 # glycerol
mass    5   62.000 # ester
mass    6   42.000 # tail

# LJ coeffs: iType jType epsilon_ij [kcal/mol] sigma_ij [angstrom]
pair_coeff    1    1	  0.466  3.000 # water-water
pair_coeff    1    2	  0.585  4.100 # water-choline
pair_coeff    1    3	  1.054  4.100 # water-phosphate
pair_coeff    1    4	  0.574  3.800 # water-glycerol
pair_coeff    1    5	  0.765  3.800 # water-ester
pair_coeff    1    6	  0.447  3.750 # water-tail
pair_coeff    2    2	  1.434  5.200 # choline-choline
pair_coeff    2    3	  1.434  5.200 # choline-phosphate
pair_coeff    2    4	  1.171  4.900 # choline-glycerol
pair_coeff    2    5	  1.171  4.900 # choline-ester
pair_coeff    2    6	  1.095  4.850 # choline-tail
pair_coeff    3    3	  1.434  5.200 # phosphate-phosphate
pair_coeff    3    4	  1.171  4.900 # phosphate-glycerol
pair_coeff    3    5	  1.171  4.900 # phosphate-ester
pair_coeff    3    6	  1.095  4.850 # phosphate-tail
pair_coeff    4    4	  0.956  4.600 # glycerol-glycerol
pair_coeff    4    5	  0.956  4.600 # glycerol-ester
pair_coeff    4    6	  0.894  4.550 # glycerol-tail
pair_coeff    5    5	  0.956  4.600 # ester-ester
pair_coeff    5    6	  0.894  4.550 # ester-tail
pair_coeff    6    6	  0.837  4.500 # tail-tail

# harmonic bond coeffs:  K [kcal/(mol*angstrom^2)] r0 [angstrom]
bond_coeff    1  harmonic  1.506  4.680 # choline--phosphate
bond_coeff    2  harmonic  1.506  4.410 # phosphate--glycerol
bond_coeff    3  harmonic  1.506  4.140 # glycerol--ester
bond_coeff    4  harmonic  1.506  4.095 # ester--tail
bond_coeff    5  harmonic  1.506  4.050 # tail--tail
# dipole bond coeffs:  K [kcal/mol] gamma0 [degrees]
bond_coeff    6  dipole    1.195  0.000 # glycerolDipole-phosphate, esterDipole-tail

# angle coeffs: K [kcal/mol] theta0 [degrees]
angle_coeff    1  3.5851  115.00 # choline-phosphate-glycerol
angle_coeff    2  3.5851  160.00 # phosphate-glycerol-ester
angle_coeff    3  3.5851  180.00 # glycerol-ester-tail, tail-tail-tail (saturated)
angle_coeff    4  3.5851  120.00 # tail-tail-tail (unsaturated)

special_bonds	lj/coul 0.0 1.0 1.0
velocity	all create 0.0 87287

neighbor	1 bin
neigh_modify	delay 2

group		lipids type 2 3 4 5 6
1920 atoms in group lipids
group		water type 1
4232 atoms in group water

fix		integrate all nve/sphere update dipole
fix 		tempLip lipids langevin 303.15 303.15 100.0 48279 omega yes
fix 		tempWat water langevin 303.15 303.15 100.0 48279 omega yes
fix             removeMomentum all momentum 1 linear 1 1 1

compute		erot all erotate/sphere
thermo_style	custom step etotal pe epair c_erot press temp
thermo		100

dump		trj all custom 100 dump.trj id type mol x y z mux muy muz
dump_modify	trj sort id

timestep	1
run		1000
Step TotEng PotEng E_pair erot Press Temp
0   -41133.234   -41133.234   -43043.048            0   -740.68551            0
Averages over the last 6 of 11 rows, steps 500 to 1000:
TotEng PotEng E_pair erot Press Temp
-35619.7 -41131.1 -42987.9 5543.4 -50.576 300.594
Loop time of 12.3285 on 8 procs for 1000 steps with 6152 atoms

Pair  time (%) = 7.83665 (63.5654)
Bond  time (%) = 0.0398872 (0.323537)
Neigh time (%) = 0.0793233 (0.643415)
Comm  time (%) = 3.85931 (31.3041)
Outpt time (%) = 0.175699 (1.42515)
Other time (%) = 0.337605 (2.73842)

timestep	2
run		1000
Step TotEng PotEng E_pair erot Press Temp
1000    -35617.76   -41118.817   -42946.504    5541.6413   -29.681434    300.03097
Averages over the last 6 of 11 rows, steps 1500 to 2000:
TotEng PotEng E_pair erot Press Temp
-35505.3 -41079.7 -42964.5 5576.27 48.1774 304.029
Loop time of 12.6938 on 8 procs for 1000 steps with 6152 atoms

Pair  time (%) = 7.96979 (62.7847)
Bond  time (%) = 0.040281 (0.317327)
Neigh time (%) = 0.166289 (1.31)
Comm  time (%) = 3.97168 (31.2883)
Outpt time (%) = 0.198623 (1.56472)
Other time (%) = 0.347176 (2.73499)

timestep	5
run		1000
Step TotEng PotEng E_pair erot Press Temp
2000   -35434.838   -41060.769   -42964.396    5555.8676    55.083897     306.8417
Averages over the last 6 of 11 rows, steps 2500 to 3000:
TotEng PotEng E_pair erot Press Temp
-35512.4 -41055.9 -42979.1 5541.33 38.6651 302.344
Loop time of 12.8211 on 8 procs for 1000 steps with 6152 atoms

Pair  time (%) = 7.44334 (58.0552)
Bond  time (%) = 0.0372187 (0.290292)
Neigh time (%) = 0.386488 (3.01446)
Comm  time (%) = 4.4637 (34.8151)
Outpt time (%) = 0.164048 (1.27951)
Other time (%) = 0.326352 (2.54542)

timestep	10
run		1000
Step TotEng PotEng E_pair erot Press Temp
3000    -35560.06   -41089.448   -42995.829     5432.126    66.793622    301.57619
Averages over the last 6 of 11 rows, steps 3500 to 4000:
TotEng PotEng E_pair erot Press Temp
-35356.2 -40944.5 -42886.1 5545.81 46.9051 304.79
Loop time of 13.6062 on 8 procs for 1000 steps with 6152 atoms

Pair  time (%) = 7.47207 (54.9167)
Bond  time (%) = 0.0379935 (0.279237)
Neigh time (%) = 0.737428 (5.4198)
Comm  time (%) = 4.82489 (35.461)
Outpt time (%) = 0.199557 (1.46666)
Other time (%) = 0.334243 (2.45656)

fix		baro all press/berendsen aniso 1 1 500 couple xy modulus 22222
run		1000
Step TotEng PotEng E_pair erot Press Temp
4000   -35266.009   -40855.595   -42834.751    5477.0995    55.878393    304.85937
Averages over the last 6 of 11 rows, steps 4500 to 5000:
TotEng PotEng E_pair erot Press Temp
-35304.5 -40872.3 -42798.8 5548.19 20.2077 303.675
Loop time of 13.7598 on 8 procs for 1000 steps with 6152 atoms

Pair  time (%) = 7.49158 (54.4454)
Bond  time (%) = 0.0452488 (0.328848)
Neigh time (%) = 0.755232 (5.48869)
Comm  time (%) = 4.91943 (35.7522)
Outpt time (%) = 0.17632 (1.28141)
Other time (%) = 0.371996 (2.7035)
