LAMMPS (27 Oct 2011)
units		real
atom_style	hybrid angle dipole sphere
read_data 	data.128lip4232wat
  orthogonal box = (-34.0234 -34.0234 -31.763) to (34.0234 34.0234 31.763)
  6152 atoms
  1792 bonds
  2048 angles
include 	forcefield.elba
pair_style dipole/sf 12
special_bonds lj/coul 0.0 1.0 1.0
bond_style harmonic
angle_style hybrid cosine/squared dipole

#    type  mass [grams/mol]
mass    1   40.000 # water
mass    2   90.000 # choline
mass    3   90.000 # phosphate
mass    4   62.000 # glycerol
mass    5   62.000 # ester
mass    6   42.000 # tail

# LJ coeffs: iType jType epsilon_ij [kcal/mol] sigma_ij [angstrom]
pair_coeff    1    1	  0.466  3.000 # water-water
pair_coeff    1    2	  0.585  4.100 # water-choline
pair_coeff    1    3	  1.054  4.100 # water-phosphate
pair_coeff    1    4	  0.574  3.800 # water-glycerol
pair_coeff    1    5	  0.765  3.800 # water-ester
pair_coeff    1    6	  0.447  3.750 # water-tail
pair_coeff    2    2	  1.434  5.200 # choline-choline
pair_coeff    2    3	  1.434  5.200 # choline-phosphate
pair_coeff    2    4	  1.171  4.900 # choline-glycerol
pair_coeff    2    5	  1.171  4.900 # choline-ester
pair_coeff    2    6	  1.095  4.850 # choline-tail
pair_coeff    3    3	  1.434  5.200 # phosphate-phosphate
pair_coeff    3    4	  1.171  4.900 # phosphate-glycerol
pair_coeff    3    5	  1.171  4.900 # phosphate-ester
pair_coeff    3    6	  1.095  4.850 # phosphate-tail
pair_coeff    4    4	  0.956  4.600 # glycerol-glycerol
pair_coeff    4    5	  0.956  4.600 # glycerol-ester
pair_coeff    4    6	  0.894  4.550 # glycerol-tail
pair_coeff    5    5	  0.956  4.600 # ester-ester
pair_coeff    5    6	  0.894  4.550 # ester-tail
pair_coeff    6    6	  0.837  4.500 # tail-tail

# harmonic bond coeffs:  K [kcal/(mol*angstrom^2)] r0 [angstrom]
bond_coeff    1   1.506  4.680 # choline--phosphate
bond_coeff    2   1.506  4.410 # phosphate--glycerol
bond_coeff    3   1.506  4.140 # glycerol--ester
bond_coeff    4   1.506  4.095 # ester--tail
bond_coeff    5   1.506  4.050 # tail--tail

# angle coeffs: K [kcal/mol] theta0 [degrees]
angle_coeff 1 cosine/squared 3.5851 115.00 # choline-phosphate-glycerol
angle_coeff 2 cosine/squared 3.5851 160.00 # phosphate-glycerol-ester
angle_coeff 3 cosine/squared 3.5851 180.00 # gly-est-tail, tail-tail-tail (sat)
angle_coeff 4 cosine/squared 3.5851 120.00 # tail-tail-tail (unsat)
# dipole angle coeffs:  K [kcal/mol] gamma0 [degrees]
angle_coeff 5  dipole    1.195  0.000 # glyDipole-phosphate, estDipole-tail

velocity	all create 0.0 87287

group		lip type 2 3 4 5 6
1920 atoms in group lip
group		head type 2 3
256 atoms in group head
group		wat type 1
4232 atoms in group wat
group		chol type 2
128 atoms in group chol
group		phos type 3
128 atoms in group phos
group		gly type 4
128 atoms in group gly
group		est type 5
256 atoms in group est
group		tail type 6
1280 atoms in group tail

neighbor	2 bin
neigh_modify	delay 0

fix		integrate all nve/sphere update dipole
fix             removeMom all momentum 1 linear 1 1 1
fix 		thermoLip lip langevin 303.15 303.15 100.0 48279 omega yes
fix 		thermoWat wat langevin 303.15 303.15 100.0 48279 omega yes
fix		baro all press/berendsen aniso 1 1 500 couple xy modulus 21740

timestep	15

variable	surfTens equal 0.5*lz*(pzz-0.5*(pxx+pyy))/3
variable	lipArea equal lx*ly/64
variable	lipVol equal (vol-(4232*30))/128
thermo_style    custom step temp press v_surfTens v_lipArea v_lipVol
thermo		100

dump		trj all custom 1000 dump.trj id type mol x y z mux muy muz
dump_modify	trj sort id

run		1000 # equilibration
Step Temp Press surfTens lipArea lipVol
0            0   -740.68551   -669.30069    72.349569    1306.1622
Averages over the last 6 of 11 rows, steps 500 to 1000:
Temp Press surfTens lipArea lipVol
302.763 -11.0509 290.306 72.3084 1316.66
Loop time of 15.8433 on 8 procs for 1000 steps with 6152 atoms

Pair  time (%) = 10.487 (66.1919)
Bond  time (%) = 0.0625406 (0.394745)
Neigh time (%) = 0.820493 (5.1788)
Comm  time (%) = 4.02757 (25.4213)
Outpt time (%) = 0.0290217 (0.18318)
Other time (%) = 0.416691 (2.63008)

# average area & vol over time:
fix 		lipArea all ave/time 5 200 1000 v_lipArea file lip.area
fix 		lipVol all ave/time 5 200 1000 v_lipVol file lip.vol

# calc number density profiles:
fix 		numDensWat wat ave/spatial 5 2000 10000 z center 0.1 		density/number units box file numDensWat.zProfile
fix 		numDensLip lip ave/spatial 5 2000 10000 z center 0.1 		density/number units box file numDensLip.zProfile
fix 		numDensChol chol ave/spatial 5 2000 10000 z center 0.1 		density/number units box file numDensChol.zProfile
fix 		numDensPhos phos ave/spatial 5 2000 10000 z center 0.1 		density/number units box file numDensPhos.zProfile
fix 		numDensGly gly ave/spatial 5 2000 10000 z center 0.1 		density/number units box file numDensGly.zProfile
fix 		numDensEst est ave/spatial 5 2000 10000 z center 0.1 		density/number units box file numDensEst.zProfile
fix 		numDensTail tail ave/spatial 5 2000 10000 z center 0.1 		density/number units box file numDensTail.zProfile

# calc stress profiles:
compute		stpa all stress/atom
fix		stress all ave/spatial 5 2000 10000 z center 0.1 		c_stpa[1] c_stpa[2] c_stpa[3] units box file stress.zProfile

# calc charge density profile:
compute		chgHead head property/atom q
fix 		qDensHead head ave/spatial 5 2000 10000 z center 0.1 		c_chgHead units box file qDensHead.zProfile

# calc dipole projection profiles:
compute		dipGly gly property/atom muz
fix 		muzGly gly ave/spatial 5 2000 10000 z center 0.1 		c_dipGly units box file muzGly.zProfile
compute		dipEst est property/atom muz
fix 		muzEst est ave/spatial 5 2000 10000 z center 0.1 		c_dipEst units box file muzEst.zProfile
compute		dipWat wat property/atom muz
fix 		muzWat wat ave/spatial 5 2000 10000 z center 0.1 		c_dipWat units box file muzWat.zProfile

# calc mean squared displacement of representative lipid atom (gly):
compute		msd gly msd com yes
fix 		msd gly ave/time 1 1 200 c_msd[4] file gly.msd

# calc mean squared displacement of lipid molecules:
compute		msdm lip msd/molecule
fix 		msdm lip ave/time 1 1 10000 c_msdm[4] mode vector file lip.msd

run		20000 # production
Step Temp Press surfTens lipArea lipVol
1000    302.28601    25.540967    9.9580753    72.022857     1310.097
Averages over the last 101 of 201 rows, steps 11000 to 21000:
Temp Press surfTens lipArea lipVol
302.824 -2.41314 96.7462 73.2394 1317.38
Loop time of 321.566 on 8 procs for 20000 steps with 6152 atoms

Pair  time (%) = 208.654 (64.8869)
Bond  time (%) = 2.08613 (0.648742)
Neigh time (%) = 15.9113 (4.94808)
Comm  time (%) = 82.1773 (25.5553)
Outpt time (%) = 0.579641 (0.180256)
Other time (%) = 12.1575 (3.78071)
