LAMMPS (28 May 2012)
units		real
atom_style	hybrid angle dipole sphere
read_data 	data.128lip4232wat
  orthogonal box = (-34.0234 -34.0234 -31.763) to (34.0234 34.0234 31.763)
  6152 atoms
  1792 bonds
  2048 angles
include 	forcefield.elba
pair_style dipole/sf 12.0
special_bonds lj/coul 0.0 1.0 1.0
bond_style harmonic
angle_style hybrid cosine/squared dipole

#   atomType  mass
mass    1   40.000  # wat
mass    2   90.000  # chol
mass    3   90.000  # phos
mass    4   62.000  # glyc
mass    5   62.000  # est
mass    6   42.000  # tail

# Set diameters. These values are in turn used to obtain the moment of
# inertia, used in the rotational integration.
set type 1 diameter 5.0 # wat dipole
  4232 settings made for diameter
set type 4 diameter 12.7 # gly dipole
  128 settings made for diameter
set type 5 diameter 12.7 # est dipole
  256 settings made for diameter

# Lennard-Jones coefficients:
#           iType jType	  eps_ij sig_ij
pair_coeff    1    1	  0.550  3.050 # wat-wat
pair_coeff    1    2	  0.725  4.225 # wat-chol
pair_coeff    1    3	  0.943  4.125 # wat-phos
pair_coeff    1    4	  0.651  3.825 # wat-gly
pair_coeff    1    5	  0.710  3.825 # wat-est
pair_coeff    1    6	  0.554  3.775 # wat-tail
pair_coeff    2    2	  1.434  5.400 # chol-chol
pair_coeff    2    3	  1.434  5.300 # chol-phos
pair_coeff    2    4	  1.171  5.000 # chol-gly
pair_coeff    2    5	  1.171  5.000 # chol-est
pair_coeff    2    6	  1.095  4.950 # chol-tail
pair_coeff    3    3	  1.434  5.200 # phos-phos
pair_coeff    3    4	  1.171  4.900 # phos-gly
pair_coeff    3    5	  1.171  4.900 # phos-est
pair_coeff    3    6	  1.095  4.850 # phos-tail
pair_coeff    4    4	  0.956  4.600 # gly-gly
pair_coeff    4    5	  0.956  4.600 # gly-est
pair_coeff    4    6	  0.894  4.550 # gly-tail
pair_coeff    5    5	  0.956  4.600 # est-est
pair_coeff    5    6	  0.894  4.550 # est-tail
pair_coeff    6    6	  0.837  4.500 # tail-tail

# harmonic bond coefficients:
#         bondType   K     r0
bond_coeff    1    1.506  4.770 # chol--phos
bond_coeff    2    1.506  4.410 # phos--gly
bond_coeff    3    1.506  4.140 # gly--est
bond_coeff    4    1.506  4.095 # est--tail
bond_coeff    5    1.506  4.050 # tail--tail

# angle coefficients:
#	  angleType	             K    theta0
angle_coeff    1  cosine/squared   3.585  115.00 # chol-phos-gly
angle_coeff    2  cosine/squared   3.585   90.00 # phos-gly-est
angle_coeff    3  cosine/squared   3.585  180.00 # gly-est-tail, tail-tail
angle_coeff    4  cosine/squared   3.585  120.00 # tail-tail-tail (unsat)
# dipole angle coefficients:
#	  angleType	   K   gamma0
angle_coeff    5  dipole 1.195  0.00 # glyDip-phos, estDip-tail

velocity	all create 0.0 87287

variable	nLips equal 128 # total number of lipids
variable	nWats equal 4232 # total number of waters
variable	watVol equal 30.0 # water molecular volume (~30 A^3)
variable	atmA__in__mN_m equal 0.01013 # 1 atm*A = 0.01013 mN/m

variable	Neqnvt equal 5000
variable	Neqnpt equal 50000
variable	Nprod equal 100000
variable	Nthe equal 5000
variable	Ndump equal 10000
variable	Ne equal 2
variable	Nr equal 50000
variable	Nf equal 100000+5000+50000
variable	Nthe_e equal 5000/2
variable	Dz equal 1.0

group		lip type 2 3 4 5 6
1920 atoms in group lip
group		head type 2 3
256 atoms in group head
group		wat type 1
4232 atoms in group wat
group		chol type 2
128 atoms in group chol
group		phos type 3
128 atoms in group phos
group		gly type 4
128 atoms in group gly
group		est type 5
256 atoms in group est
group		tail type 6
1280 atoms in group tail

timestep	10
neighbor	1 bin
neigh_modify	delay 0

fix		integrate all nve/sphere update dipole
fix 		thermo all langevin 303 303 1000 9 omega yes zero yes
fix             removeMomentum all momentum 100 linear 1 1 1 # angular

dump	trj all custom 10000 dump.*.trj id type mol x y z mux muy muz
dump_modify	trj sort id pad 6

# compute and average area and volume per lipid:
variable	lipArea equal lx*ly/(128/2)
fix		lipArea lip ave/time 2 2500 5000 v_lipArea
variable	lipVol equal (vol-(4232*30))/128
fix		lipVol lip ave/time 2 2500 5000 v_lipVol

# compute and average pressure:
variable	P equal press
fix 		P all ave/time 2 2500 5000 v_P

# compute and average total (translational + rotational) temperature:
compute 	tempTot all temp/sphere dof all
fix 		tempTot all ave/time 2 2500 5000 c_tempTot
#compute_modify  tempTot extra 3 # default -> no effect

# compute and average rotational temperature:
compute 	tempRot all temp/sphere dof rotate
fix 		tempRot all ave/time 2 2500 5000 c_tempRot

thermo_style custom step press f_P temp f_tempTot f_tempRot f_lipArea f_lipVol
thermo		5000

# compute and average surface tension (gamma) per monolayer:
variable	gamma equal (0.5*lz*(pzz-0.5*(pxx+pyy))/3)*0.010130000000000000115
fix	gamma all ave/time 2 2500 5000 v_gamma file gamma.dat

# compute and average interface area (bilayer assumed parallel to xy plane):
variable	xyArea equal lx*ly
fix 		xyArea all ave/time 1 1 2 v_xyArea file xyArea.dat

# compute and average box volume:
variable	boxVol equal vol
fix 		boxVol all ave/time 1 1 2 v_boxVol file boxVol.dat

run		5000
Step Press P Temp tempTot tempRot lipArea lipVol
0    8307.8375            0            0            0            0            0            0
Loop time of 33.1971 on 12 procs for 5000 steps with 6152 atoms

Pair  time (%) = 21.6192 (65.1239)
Bond  time (%) = 0.10957 (0.330058)
Neigh time (%) = 2.27395 (6.84985)
Comm  time (%) = 8.07575 (24.3267)
Outpt time (%) = 6.88434e-05 (0.000207378)
Other time (%) = 1.11853 (3.36935)

fix		baro all press/berendsen aniso 1 1 1000 couple xy modulus 21740

run		50000
Step Press P Temp tempTot tempRot lipArea lipVol
5000    79.708001    333.77258    302.80602    301.48355    300.68321    72.349569    1306.1622
Averages over the last 6 of 11 rows, steps 30000 to 55000:
Press P Temp tempTot tempRot lipArea lipVol
-6.66969 0.767635 304.883 303.156 302.878 73.6412 1327.2
Loop time of 334.738 on 12 procs for 50000 steps with 6152 atoms

Pair  time (%) = 216.938 (64.8082)
Bond  time (%) = 1.20661 (0.360465)
Neigh time (%) = 22.7996 (6.81115)
Comm  time (%) = 81.1731 (24.2497)
Outpt time (%) = 0.09068 (0.0270898)
Other time (%) = 12.5305 (3.74336)

fix 	numDensLip lip ave/spatial 2 50000 155000 z center 1 		density/number units box file numDensLip.zProfile
fix 	numDensWat wat ave/spatial 2 50000 155000 z center 1 		density/number units box file numDensWat.zProfile
fix 	numDensChol chol ave/spatial 2 50000 155000 z center 1 		density/number units box file numDensChol.zProfile
fix 	numDensPhos phos ave/spatial 2 50000 155000 z center 1 		density/number units box file numDensPhos.zProfile
fix 	numDensGly gly ave/spatial 2 50000 155000 z center 1 		density/number units box file numDensGly.zProfile
fix 	numDensEst est ave/spatial 2 50000 155000 z center 1 		density/number units box file numDensEst.zProfile
fix 	numDensTail tail ave/spatial 2 50000 155000 z center 1 		density/number units box file numDensTail.zProfile

compute		stpa all stress/atom
fix	stress all ave/spatial 2 50000 155000 z center 1 		c_stpa[1] c_stpa[2] c_stpa[3] c_stpa[4] c_stpa[5] c_stpa[6] 		units box file stress.zProfile

compute		stke all stress/atom ke
fix	stressKinEn all ave/spatial 2 50000 155000 z center 1 		c_stke[1] c_stke[2] c_stke[3] c_stke[4] c_stke[5] c_stke[6] 		units box file stressKinEn.zProfile

compute		stnb all stress/atom pair
fix	stressNonBond all ave/spatial 2 50000 155000 z center 1 		c_stnb[1] c_stnb[2] c_stnb[3] c_stnb[4] c_stnb[5] c_stnb[6] 		units box file stressNonBond.zProfile

compute		stb all stress/atom bond
fix	stressBond all ave/spatial 2 50000 155000 z center 1 		c_stb[1] c_stb[2] c_stb[3] c_stb[4] c_stb[5] c_stb[6] 		units box file stressBond.zProfile

compute		sta all stress/atom angle
fix	stressAngle all ave/spatial 2 50000 155000 z center 1 		c_sta[1] c_sta[2] c_sta[3] c_sta[4] c_sta[5] c_sta[6] 		units box file stressAngle.zProfile

compute		stv all stress/atom virial # check this is redundant
fix	stressVir all ave/spatial 2 50000 155000 z center 1 		c_stv[1] c_stv[2] c_stv[3] c_stv[4] c_stv[5] c_stv[6] 		units box file stressVir.zProfile

compute		chgHead head property/atom q
fix 	qDensHead head ave/spatial 2 50000 155000 z center 1 		c_chgHead units box file qDensHead.zProfile

compute		dipGly gly property/atom muz
fix 	muzGly gly ave/spatial 2 50000 155000 z center 1 		c_dipGly units box file muzGly.zProfile

compute		dipEst est property/atom muz
fix 	muzEst est ave/spatial 2 50000 155000 z center 1 		c_dipEst units box file muzEst.zProfile

compute		dipWat wat property/atom muz
fix 	muzWat wat ave/spatial 2 50000 155000 z center 1 		c_dipWat units box file muzWat.zProfile

compute		msd gly msd com yes
fix 		msd gly ave/time 1 1 2 c_msd[4] file gly.msd

run		100000
Step Press P Temp tempTot tempRot lipArea lipVol
55000   -2.6113562   -1.0142265    305.05398    303.24989    302.77445    73.542069    1323.6838
Averages over the last 11 of 21 rows, steps 105000 to 155000:
Press P Temp tempTot tempRot lipArea lipVol
-32.4438 1.20997 304.514 303.019 302.829 72.0333 1324.62
Loop time of 973.497 on 12 procs for 100000 steps with 6152 atoms

Pair  time (%) = 500.011 (51.3624)
Bond  time (%) = 13.0499 (1.34052)
Neigh time (%) = 46.1512 (4.74076)
Comm  time (%) = 222.059 (22.8104)
Outpt time (%) = 0.17798 (0.0182826)
Other time (%) = 192.048 (19.7277)
