LAMMPS (14 Aug 2011)
units		real
atom_style	hybrid angle dipole sphere
read_data 	data.128dopc4232wat
  orthogonal box = (-34.0863 -34.0863 -31.5696) to (34.0863 34.0863 31.5696)
  6152 atoms
  2176 bonds
  1664 angles
include 	forcefield.dopc
pair_style dipole/sf 12
bond_style hybrid harmonic dipole
angle_style cosine/squared

#    type  mass [grams/mol]
mass    1   40.000 # water
mass    2   90.000 # choline
mass    3   90.000 # phosphate
mass    4   62.000 # glycerol
mass    5   62.000 # ester
mass    6   42.000 # tail

# LJ coeffs: iType jType epsilon_ij [kcal/mol] sigma_ij [angstrom]
pair_coeff    1    1	  0.466  3.000 # water-water
pair_coeff    1    2	  0.585  4.100 # water-choline
pair_coeff    1    3	  1.054  4.100 # water-phosphate
pair_coeff    1    4	  0.574  3.800 # water-glycerol
pair_coeff    1    5	  0.765  3.800 # water-ester
pair_coeff    1    6	  0.447  3.750 # water-tail
pair_coeff    2    2	  1.434  5.200 # choline-choline
pair_coeff    2    3	  1.434  5.200 # choline-phosphate
pair_coeff    2    4	  1.171  4.900 # choline-glycerol
pair_coeff    2    5	  1.171  4.900 # choline-ester
pair_coeff    2    6	  1.095  4.850 # choline-tail
pair_coeff    3    3	  1.434  5.200 # phosphate-phosphate
pair_coeff    3    4	  1.171  4.900 # phosphate-glycerol
pair_coeff    3    5	  1.171  4.900 # phosphate-ester
pair_coeff    3    6	  1.095  4.850 # phosphate-tail
pair_coeff    4    4	  0.956  4.600 # glycerol-glycerol
pair_coeff    4    5	  0.956  4.600 # glycerol-ester
pair_coeff    4    6	  0.894  4.550 # glycerol-tail
pair_coeff    5    5	  0.956  4.600 # ester-ester
pair_coeff    5    6	  0.894  4.550 # ester-tail
pair_coeff    6    6	  0.837  4.500 # tail-tail

# harmonic bond coeffs:  K [kcal/(mol*angstrom^2)] r0 [angstrom]
bond_coeff    1  harmonic  1.506  4.680 # choline--phosphate
bond_coeff    2  harmonic  1.506  4.410 # phosphate--glycerol
bond_coeff    3  harmonic  1.506  4.140 # glycerol--ester
bond_coeff    4  harmonic  1.506  4.095 # ester--tail
bond_coeff    5  harmonic  1.506  4.050 # tail--tail
# dipole bond coeffs:  K [kcal/mol] gamma0 [degrees]
bond_coeff    6  dipole    1.195  0.000 # glycerolDipole-phosphate, esterDipole-tail

# angle coeffs: K [kcal/mol] theta0 [degrees]
angle_coeff    1  3.5851  115.00 # choline-phosphate-glycerol
angle_coeff    2  3.5851  160.00 # phosphate-glycerol-ester
angle_coeff    3  3.5851  180.00 # glycerol-ester-tail, tail-tail-tail (saturated)
angle_coeff    4  3.5851  120.00 # tail-tail-tail (unsaturated)

special_bonds	lj/coul 0.0 1.0 1.0
velocity	all create 0.0 87287

neighbor	1 bin
neigh_modify	delay 2

group		lipids type 2 3 4 5 6
1920 atoms in group lipids
group		water type 1
4232 atoms in group water

fix		integrate all nve/sphere update dipole
fix 		tempLip lipids langevin 303.15 303.15 100.0 48279 omega yes
fix 		tempWat water langevin 303.15 303.15 100.0 48279 omega yes
fix             removeMomentum all momentum 1 linear 1 1 1

compute		erot all erotate/sphere
thermo_style	custom step etotal pe epair c_erot press temp
thermo		100
dump		trj all custom 1000 dump.trj id type mol x y z mux muy muz
dump_modify	trj sort id

timestep	1
run		1000
Step TotEng PotEng E_pair erot Press Temp
0    76381.001    76381.001     48856.93            0    71954.821            0
Averages over the last 6 of 11 rows, steps 500 to 1000:
TotEng PotEng E_pair erot Press Temp
-19460.6 -25575.3 -34285.7 5703.23 3095.36 333.502
Loop time of 9.01236 on 8 procs for 1000 steps with 6152 atoms

Pair  time (%) = 6.92771 (76.8689)
Bond  time (%) = 0.0468323 (0.519645)
Neigh time (%) = 0.122353 (1.35761)
Comm  time (%) = 1.54585 (17.1525)
Outpt time (%) = 0.0280686 (0.311446)
Other time (%) = 0.341554 (3.78984)

timestep	3
run		1000
Step TotEng PotEng E_pair erot Press Temp
1000   -22559.277   -28403.198   -35475.522    5707.8738    2884.7114    318.73098
Averages over the last 6 of 11 rows, steps 1500 to 2000:
TotEng PotEng E_pair erot Press Temp
-28965.5 -34569.4 -38255.8 5557.38 1568.7 305.64
Loop time of 9.30801 on 8 procs for 1000 steps with 6152 atoms

Pair  time (%) = 6.94578 (74.6216)
Bond  time (%) = 0.0467449 (0.502201)
Neigh time (%) = 0.26346 (2.83046)
Comm  time (%) = 1.66978 (17.9392)
Outpt time (%) = 0.0285121 (0.306318)
Other time (%) = 0.353724 (3.80021)

timestep	15
run		1000
Step TotEng PotEng E_pair erot Press Temp
2000   -29854.053   -35353.664   -38635.126    5569.1829    1426.4113    299.95211
Averages over the last 6 of 11 rows, steps 2500 to 3000:
TotEng PotEng E_pair erot Press Temp
-31744.5 -37317.6 -39723 5557.81 699.554 303.96
Loop time of 10.8981 on 8 procs for 1000 steps with 6152 atoms

Pair  time (%) = 7.10946 (65.2356)
Bond  time (%) = 0.0476796 (0.437503)
Neigh time (%) = 1.19037 (10.9227)
Comm  time (%) = 2.16565 (19.8718)
Outpt time (%) = 0.0283723 (0.260341)
Other time (%) = 0.356602 (3.27214)

fix		baro all press/berendsen aniso 1 1 500 modulus 22222
run		5000
Step TotEng PotEng E_pair erot Press Temp
3000   -31809.175   -37392.674   -39717.243    5674.8922    668.12534    304.52739
Averages over the last 26 of 51 rows, steps 5500 to 8000:
TotEng PotEng E_pair erot Press Temp
-32159.1 -37714.4 -39781.4 5578.69 -13.4743 302.988
Loop time of 55.1985 on 8 procs for 5000 steps with 6152 atoms

Pair  time (%) = 34.2794 (62.102)
Bond  time (%) = 0.271309 (0.491516)
Neigh time (%) = 5.89865 (10.6863)
Comm  time (%) = 12.5912 (22.8107)
Outpt time (%) = 0.142698 (0.258518)
Other time (%) = 2.01526 (3.65094)
