LAMMPS (25 Sep 2011)
units		real
atom_style	hybrid angle dipole sphere

read_data 	data.singleLipid
  orthogonal box = (-60 -60 -60) to (60 60 60)
  15 atoms
  14 bonds
  16 angles
include 	forcefield.stiff
pair_style dipole/sf 12
bond_style harmonic
angle_style hybrid cosine/squared dipole

mass    1   40.000
mass    2   90.000
mass    3   90.000
mass    4   62.000
mass    5   62.000
mass    6   42.000

pair_coeff    1    1	  0.1 3.000
pair_coeff    1    2	  0.1 4.100
pair_coeff    1    3	  0.1 4.100
pair_coeff    1    4	  0.1 3.800
pair_coeff    1    5	  0.1 3.800
pair_coeff    1    6	  0.1 3.750
pair_coeff    2    2	  0.1 5.200
pair_coeff    2    3	  0.1 5.200
pair_coeff    2    4	  0.1 4.900
pair_coeff    2    5	  0.1 4.900
pair_coeff    2    6	  0.1 4.850
pair_coeff    3    3	  0.1 5.200
pair_coeff    3    4	  0.1 4.900
pair_coeff    3    5	  0.1 4.900
pair_coeff    3    6	  0.1 4.850
pair_coeff    4    4	  0.1 4.600
pair_coeff    4    5	  0.1 4.600
pair_coeff    4    6	  0.1 4.550
pair_coeff    5    5	  0.1 4.600
pair_coeff    5    6	  0.1 4.550
pair_coeff    6    6	  0.1 4.500

bond_coeff    1     1506.0  4.680
bond_coeff    2     1506.0  4.410
bond_coeff    3     1506.0  4.140
bond_coeff    4     1506.0  4.095
bond_coeff    5     1506.0  4.050

angle_coeff    1  cosine/squared 35851  115.00
angle_coeff    2  cosine/squared 35851  160.00
angle_coeff    3  cosine/squared 35851  180.00
angle_coeff    4  cosine/squared 35851  120.00
angle_coeff    5  dipole   1000.0  0.0

special_bonds	lj/coul 0.0 1.0 1.0

velocity	all create 0.0 87287 mom no

neighbor	1 bin
neigh_modify 	delay 1

fix		1 all nve/sphere update dipole
fix 		2 all langevin 303.15 303.15 100.0 48279 omega yes

compute		erot all erotate/sphere
thermo_style	custom step etotal pe epair c_erot press temp
thermo		100

dump		1 all custom 10 dump.trj id type mol x y z mux muy muz
dump_modify	1 sort id

timestep	0.01
run		1000
Step TotEng PotEng E_pair erot Press Temp
0    543372.14    543372.14    318812.67            0    51600.193            0
Averages over the last 6 of 11 rows, steps 500 to 1000:
TotEng PotEng E_pair erot Press Temp
493965 280607 316.112 1094.05 -1194.41 5.11266e+06
Loop time of 0.012922 on 1 procs for 1000 steps with 15 atoms

Pair  time (%) = 0.00307536 (23.7993)
Bond  time (%) = 0.00156403 (12.1035)
Neigh time (%) = 0.000595331 (4.6071)
Comm  time (%) = 0.000531912 (4.11631)
Outpt time (%) = 0.00425124 (32.8991)
Other time (%) = 0.00290418 (22.4746)

timestep	0.1
run		1000
Step TotEng PotEng E_pair erot Press Temp
1000    484301.38    359597.18    651.40952    1773.1036   -6111.4087    2988262.5
Averages over the last 6 of 11 rows, steps 1500 to 2000:
TotEng PotEng E_pair erot Press Temp
218305 85292 227.772 2149.64 495.289 3.18738e+06
Loop time of 0.0139639 on 1 procs for 1000 steps with 15 atoms

Pair  time (%) = 0.00176334 (12.6278)
Bond  time (%) = 0.00159502 (11.4224)
Neigh time (%) = 0.00268126 (19.2013)
Comm  time (%) = 0.000687838 (4.92581)
Outpt time (%) = 0.00426769 (30.5622)
Other time (%) = 0.00296879 (21.2604)

timestep	1
run		1000
Step TotEng PotEng E_pair erot Press Temp
2000    160507.18    55576.998    1050.4478    1370.7105    1188.9621    2514421.5
Averages over the last 6 of 11 rows, steps 2500 to 3000:
TotEng PotEng E_pair erot Press Temp
235.267 146.645 29.3038 18.5921 0.799217 2123.64
Loop time of 0.0138001 on 1 procs for 1000 steps with 15 atoms

Pair  time (%) = 0.00195193 (14.1443)
Bond  time (%) = 0.00153875 (11.1503)
Neigh time (%) = 0.00255394 (18.5066)
Comm  time (%) = 0.000711679 (5.15704)
Outpt time (%) = 0.00420713 (30.4862)
Other time (%) = 0.0028367 (20.5556)

timestep	2
run		1000
Step TotEng PotEng E_pair erot Press Temp
3000    79.023442    63.806073    28.912501    14.436168    11.791215    364.65086
Averages over the last 6 of 11 rows, steps 3500 to 4000:
TotEng PotEng E_pair erot Press Temp
73.6648 60.787 31.4596 15.3191 -0.331308 308.587
Loop time of 0.011102 on 1 procs for 1000 steps with 15 atoms

Pair  time (%) = 0.00183892 (16.5639)
Bond  time (%) = 0.00155449 (14.0019)
Neigh time (%) = 0.000234365 (2.11103)
Comm  time (%) = 0.000520468 (4.68807)
Outpt time (%) = 0.00417185 (37.5776)
Other time (%) = 0.00278187 (25.0574)

unfix		2
run		1000Memory usage per processor = 4.25673 Mbytes
Step TotEng PotEng E_pair erot Press Temp
4000    72.288699    59.202245     34.32943    18.085661    3.6805172    313.58814
Averages over the last 6 of 11 rows, steps 4500 to 5000:
TotEng PotEng E_pair erot Press Temp
73.312 61.875 30.8004 19.8407 -3.41495 274.062
Loop time of 0.00906897 on 1 procs for 1000 steps with 15 atoms

Pair  time (%) = 0.00178671 (19.7014)
Bond  time (%) = 0.00154328 (17.0172)
Neigh time (%) = 0.00027442 (3.02592)
Comm  time (%) = 0.000494242 (5.44981)
Outpt time (%) = 0.00409365 (45.1391)
Other time (%) = 0.000876665 (9.66665)
