LAMMPS (25 Sep 2011)
units		real
atom_style	hybrid angle dipole sphere
read_data 	data.128dopc4232wat
  orthogonal box = (-34.0234 -34.0234 -31.763) to (34.0234 34.0234 31.763)
  6152 atoms
  1792 bonds
  2048 angles
include 	forcefield.dopc
pair_style dipole/sf 12
bond_style harmonic
angle_style hybrid cosine/squared dipole

#    type  mass [grams/mol]
mass    1   40.000 # water
mass    2   90.000 # choline
mass    3   90.000 # phosphate
mass    4   62.000 # glycerol
mass    5   62.000 # ester
mass    6   42.000 # tail

# LJ coeffs: iType jType epsilon_ij [kcal/mol] sigma_ij [angstrom]
pair_coeff    1    1	  0.466  3.000 # water-water
pair_coeff    1    2	  0.585  4.100 # water-choline
pair_coeff    1    3	  1.054  4.100 # water-phosphate
pair_coeff    1    4	  0.574  3.800 # water-glycerol
pair_coeff    1    5	  0.765  3.800 # water-ester
pair_coeff    1    6	  0.447  3.750 # water-tail
pair_coeff    2    2	  1.434  5.200 # choline-choline
pair_coeff    2    3	  1.434  5.200 # choline-phosphate
pair_coeff    2    4	  1.171  4.900 # choline-glycerol
pair_coeff    2    5	  1.171  4.900 # choline-ester
pair_coeff    2    6	  1.095  4.850 # choline-tail
pair_coeff    3    3	  1.434  5.200 # phosphate-phosphate
pair_coeff    3    4	  1.171  4.900 # phosphate-glycerol
pair_coeff    3    5	  1.171  4.900 # phosphate-ester
pair_coeff    3    6	  1.095  4.850 # phosphate-tail
pair_coeff    4    4	  0.956  4.600 # glycerol-glycerol
pair_coeff    4    5	  0.956  4.600 # glycerol-ester
pair_coeff    4    6	  0.894  4.550 # glycerol-tail
pair_coeff    5    5	  0.956  4.600 # ester-ester
pair_coeff    5    6	  0.894  4.550 # ester-tail
pair_coeff    6    6	  0.837  4.500 # tail-tail

# harmonic bond coeffs:  K [kcal/(mol*angstrom^2)] r0 [angstrom]
bond_coeff    1   1.506  4.680 # choline--phosphate
bond_coeff    2   1.506  4.410 # phosphate--glycerol
bond_coeff    3   1.506  4.140 # glycerol--ester
bond_coeff    4   1.506  4.095 # ester--tail
bond_coeff    5   1.506  4.050 # tail--tail

# angle coeffs: K [kcal/mol] theta0 [degrees]
angle_coeff 1 cosine/squared 3.5851 115.00 # choline-phosphate-glycerol
angle_coeff 2 cosine/squared 3.5851 160.00 # phosphate-glycerol-ester
angle_coeff 3 cosine/squared 3.5851 180.00 # gly-est-tail, tail-tail-tail (sat)
angle_coeff 4 cosine/squared 3.5851 120.00 # tail-tail-tail (unsat)
# dipole angle coeffs:  K [kcal/mol] gamma0 [degrees]
angle_coeff 5  dipole    1.195  0.000 # glyDipole-phosphate, estDipole-tail

special_bonds	lj/coul 0.0 1.0 1.0
velocity	all create 0.0 87287

group		lip type 2 3 4 5 6
1920 atoms in group lip
group		head type 2 3
256 atoms in group head
group		wat type 1
4232 atoms in group wat
group		chol type 2
128 atoms in group chol
group		phos type 3
128 atoms in group phos
group		gly type 4
128 atoms in group gly
group		est type 5
256 atoms in group est
group		tail type 6
1280 atoms in group tail

neighbor	2 bin
neigh_modify	delay 0
fix		integrate all nve/sphere update dipole
fix 		tempLip lip langevin 303.15 303.15 100.0 48279 omega yes
fix 		tempWat wat langevin 303.15 303.15 100.0 48279 omega yes
fix		baro all press/berendsen aniso 1 1 500 couple xy modulus 22222
fix             removeMomentum all momentum 1 linear 1 1 1

timestep	15

thermo_style	custom step etotal pe press temp
thermo		100

dump		trj all custom 1000 dump.trj id type mol x y z mux muy muz
dump_modify	trj sort id

run		1000 # equilibration
Step TotEng PotEng Press Temp
0   -41133.234   -41133.234   -740.68551            0
Averages over the last 6 of 11 rows, steps 500 to 1000:
TotEng PotEng Press Temp
-35198.3 -40749.9 -41.7199 302.786
Loop time of 16.0614 on 8 procs for 1000 steps with 6152 atoms

Pair  time (%) = 8.70717 (54.2119)
Bond  time (%) = 0.0501858 (0.312463)
Neigh time (%) = 0.65789 (4.09611)
Comm  time (%) = 6.20088 (38.6075)
Outpt time (%) = 0.0282404 (0.175828)
Other time (%) = 0.41698 (2.59617)

# calc number density profile:
fix 		numDensWat wat ave/spatial 5 2000 10000 z center 0.1 		density/number units box file numDensWat.zProfile
fix 		numDensChol chol ave/spatial 5 2000 10000 z center 0.1 		density/number units box file numDensChol.zProfile
fix 		numDensPhos phos ave/spatial 5 2000 10000 z center 0.1 		density/number units box file numDensPhos.zProfile
fix 		numDensGly gly ave/spatial 5 2000 10000 z center 0.1 		density/number units box file numDensGly.zProfile
fix 		numDensEst est ave/spatial 5 2000 10000 z center 0.1 		density/number units box file numDensEst.zProfile
fix 		numDensTail tail ave/spatial 5 2000 10000 z center 0.1 		density/number units box file numDensTail.zProfile

# calc stress profile:
compute		stpa all stress/atom
fix		stress all ave/spatial 5 2000 10000 z center 0.1 		c_stpa[1] c_stpa[2] c_stpa[3] units box file stress.zProfile

# calc charge density profile:
compute		chgHead head property/atom q
fix 		qDensHead head ave/spatial 5 2000 10000 z center 0.1 		c_chgHead units box file qDensHead.zProfile

# calc dipole projection profile:
compute		dipGly gly property/atom muz
fix 		muzGly gly ave/spatial 5 2000 10000 z center 0.1 		c_dipGly units box file muzGly.zProfile
compute		dipEst est property/atom muz
fix 		muzEst est ave/spatial 5 2000 10000 z center 0.1 		c_dipEst units box file muzEst.zProfile
compute		dipWat wat property/atom muz
fix 		muzWat wat ave/spatial 5 2000 10000 z center 0.1 		c_dipWat units box file muzWat.zProfile

run		20000 # production
Step TotEng PotEng Press Temp
1000   -35252.123   -40747.756   -97.600313     299.7352
Averages over the last 101 of 201 rows, steps 11000 to 21000:
TotEng PotEng Press Temp
-35279.3 -40839.8 -8.72069 303.275
Loop time of 321.359 on 8 procs for 20000 steps with 6152 atoms

Pair  time (%) = 179.227 (55.7717)
Bond  time (%) = 1.70813 (0.531534)
Neigh time (%) = 13.1144 (4.08091)
Comm  time (%) = 115.951 (36.0813)
Outpt time (%) = 0.379249 (0.118014)
Other time (%) = 10.9791 (3.41647)
