LAMMPS (14 Aug 2011)
units		real
atom_style	hybrid angle dipole sphere
read_data 	data.1058dope16000wat
  orthogonal box = (-61.5 -61.5 -61.5) to (61.5 61.5 61.5)
  31870 atoms
  17986 bonds
  13754 angles
include 	forcefield.dope
pair_style dipole/sf 12
bond_style hybrid harmonic dipole
angle_style cosine/squared

#    type  mass [grams/mol]
mass    1   40.000 # water
mass    2   42.000 # amine
mass    3   90.000 # phosphate
mass    4   62.000 # glycerol
mass    5   62.000 # ester
mass    6   42.000 # tail

# LJ coeffs: iType jType epsilon_ij [kcal/mol] sigma_ij [angstrom]
pair_coeff    1    1	  0.466  3.000 # water-water
pair_coeff    1    2	  0.671  3.750 # water-amine
pair_coeff    1    3	  1.054  4.100 # water-phosphate
pair_coeff    1    4	  0.574  3.800 # water-glycerol
pair_coeff    1    5	  0.765  3.800 # water-ester
pair_coeff    1    6	  0.447  3.750 # water-tail
pair_coeff    2    2	  0.837  4.500 # amine-amine
pair_coeff    2    3	  2.738  4.850 # amine-phosphate
pair_coeff    2    4	  1.341  4.550 # amine-glycerol
pair_coeff    2    5	  2.236  4.550 # amine-ester
pair_coeff    2    6	  0.837  4.500 # amine-tail
pair_coeff    3    3	  1.434  5.200 # phosphate-phosphate
pair_coeff    3    4	  1.171  4.900 # phosphate-glycerol
pair_coeff    3    5	  1.171  4.900 # phosphate-ester
pair_coeff    3    6	  1.095  4.850 # phosphate-tail
pair_coeff    4    4	  0.956  4.600 # glycerol-glycerol
pair_coeff    4    5	  0.956  4.600 # glycerol-ester
pair_coeff    4    6	  0.894  4.550 # glycerol-tail
pair_coeff    5    5	  0.956  4.600 # ester-ester
pair_coeff    5    6	  0.894  4.550 # ester-tail
pair_coeff    6    6	  0.837  4.500 # tail-tail

# harmonic bond coeffs:  K [kcal/(mol*angstrom^2)] r0 [angstrom]
bond_coeff    1  harmonic  1.506  4.365 # amine--phosphate
bond_coeff    2  harmonic  1.506  4.410 # phosphate--glycerol
bond_coeff    3  harmonic  1.506  4.140 # glycerol--ester
bond_coeff    4  harmonic  1.506  4.095 # ester--tail
bond_coeff    5  harmonic  1.506  4.050 # tail--tail
# dipole bond coeffs:  K [kcal/mol] gamma0 [degrees]
bond_coeff    6  dipole    1.195  0.000 # glycerolDipole-phosphate, esterDipole-tail

# angle coeffs: K [kcal/mol] theta0 [degrees]
angle_coeff    1  3.5851  115.00 # amine-phosphate-glycerol
angle_coeff    2  3.5851  160.00 # phosphate-glycerol-ester
angle_coeff    3  3.5851  180.00 # glycerol-ester-tail, tail-tail-tail (saturated)
angle_coeff    4  3.5851  120.00 # tail-tail-tail (unsaturated)

special_bonds	lj/coul 0.0 1.0 1.0
velocity	all create 0.0 87287

neighbor	1 bin
neigh_modify	delay 2

group		lipids type 2 3 4 5 6
15870 atoms in group lipids
group		water type 1
16000 atoms in group water

fix		integrate all nve/sphere update dipole
fix 		tempLip lipids langevin 303.15 303.15 100.0 48279 omega yes
fix 		tempWat water langevin 303.15 303.15 100.0 48279 omega yes
fix             removeMomentum all momentum 1 linear 1 1 1

compute		erot all erotate/sphere
thermo_style	custom step etotal pe epair c_erot press temp
thermo		100
dump		trj all custom 1000 dump.trj id type mol x y z mux muy muz
dump_modify	trj sort id

timestep	1
run		1000
Step TotEng PotEng E_pair erot Press Temp
0   -185032.05   -185032.05   -203723.41            0   -648.20246            0
Averages over the last 6 of 11 rows, steps 500 to 1000:
TotEng PotEng E_pair erot Press Temp
-158437 -187159 -205294 28730.7 -151.215 302.361
Loop time of 34.2828 on 8 procs for 1000 steps with 31870 atoms

Pair  time (%) = 25.0385 (73.035)
Bond  time (%) = 0.413437 (1.20596)
Neigh time (%) = 0.384625 (1.12192)
Comm  time (%) = 6.67305 (19.4647)
Outpt time (%) = 0.147909 (0.431437)
Other time (%) = 1.62533 (4.74094)

timestep	3
run		1000
Step TotEng PotEng E_pair erot Press Temp
1000   -158482.22   -187080.25   -205221.03    28911.483   -132.77358    301.04634
Averages over the last 6 of 11 rows, steps 1500 to 2000:
TotEng PotEng E_pair erot Press Temp
-158278 -187069 -205192 28788.9 -141.607 303.087
Loop time of 35.0415 on 8 procs for 1000 steps with 31870 atoms

Pair  time (%) = 23.9854 (68.4486)
Bond  time (%) = 0.385783 (1.10093)
Neigh time (%) = 1.11399 (3.17905)
Comm  time (%) = 7.76171 (22.1501)
Outpt time (%) = 0.147729 (0.421583)
Other time (%) = 1.64686 (4.69974)

timestep	15
run		1000
Step TotEng PotEng E_pair erot Press Temp
2000   -158332.99   -186919.28   -205063.66    28750.458   -141.04892    300.92278
Averages over the last 6 of 11 rows, steps 2500 to 3000:
TotEng PotEng E_pair erot Press Temp
-158633 -187494 -205399 28777.8 -118.998 303.82
Loop time of 40.7042 on 8 procs for 1000 steps with 31870 atoms

Pair  time (%) = 24.6282 (60.5054)
Bond  time (%) = 0.391907 (0.962818)
Neigh time (%) = 5.18585 (12.7403)
Comm  time (%) = 8.71954 (21.4217)
Outpt time (%) = 0.147442 (0.362229)
Other time (%) = 1.63122 (4.00751)

fix		baro all press/berendsen aniso 1 1 500 modulus 22222
run		5000
Step TotEng PotEng E_pair erot Press Temp
3000   -158721.02   -187561.27   -205356.55     28910.15   -156.60811    303.59609
Averages over the last 26 of 51 rows, steps 5500 to 8000:
TotEng PotEng E_pair erot Press Temp
-161744 -190512 -208478 28832.8 2.69579 302.83
Loop time of 203.894 on 8 procs for 5000 steps with 31870 atoms

Pair  time (%) = 121.468 (59.5739)
Bond  time (%) = 2.05316 (1.00698)
Neigh time (%) = 26.2825 (12.8903)
Comm  time (%) = 44.6146 (21.8813)
Outpt time (%) = 0.737715 (0.361813)
Other time (%) = 8.73827 (4.2857)
