LAMMPS (14 Aug 2011)
units		real
atom_style	hybrid angle dipole sphere
read_data 	data.128dopc4232wat
  orthogonal box = (-34.0863 -34.0863 -31.5696) to (34.0863 34.0863 31.5696)
  6152 atoms
  2176 bonds
  1664 angles
include 	forcefield.dopc
pair_style dipole/sf 12
bond_style hybrid harmonic dipole
angle_style cosine/squared

#    type  mass [grams/mol]
mass    1   40.000 # water
mass    2   90.000 # choline
mass    3   90.000 # phosphate
mass    4   62.000 # glycerol
mass    5   62.000 # ester
mass    6   42.000 # tail

# LJ coeffs: iType jType epsilon_ij [kcal/mol] sigma_ij [angstrom]
pair_coeff    1    1	  0.466  3.000 # water-water
pair_coeff    1    2	  0.585  4.100 # water-choline
pair_coeff    1    3	  1.054  4.100 # water-phosphate
pair_coeff    1    4	  0.574  3.800 # water-glycerol
pair_coeff    1    5	  0.765  3.800 # water-ester
pair_coeff    1    6	  0.447  3.750 # water-tail
pair_coeff    2    2	  1.434  5.200 # choline-choline
pair_coeff    2    3	  1.434  5.200 # choline-phosphate
pair_coeff    2    4	  1.171  4.900 # choline-glycerol
pair_coeff    2    5	  1.171  4.900 # choline-ester
pair_coeff    2    6	  1.095  4.850 # choline-tail
pair_coeff    3    3	  1.434  5.200 # phosphate-phosphate
pair_coeff    3    4	  1.171  4.900 # phosphate-glycerol
pair_coeff    3    5	  1.171  4.900 # phosphate-ester
pair_coeff    3    6	  1.095  4.850 # phosphate-tail
pair_coeff    4    4	  0.956  4.600 # glycerol-glycerol
pair_coeff    4    5	  0.956  4.600 # glycerol-ester
pair_coeff    4    6	  0.894  4.550 # glycerol-tail
pair_coeff    5    5	  0.956  4.600 # ester-ester
pair_coeff    5    6	  0.894  4.550 # ester-tail
pair_coeff    6    6	  0.837  4.500 # tail-tail

# harmonic bond coeffs:  K [kcal/(mol*angstrom^2)] r0 [angstrom]
bond_coeff    1  harmonic  1.506  4.680 # choline--phosphate
bond_coeff    2  harmonic  1.506  4.410 # phosphate--glycerol
bond_coeff    3  harmonic  1.506  4.140 # glycerol--ester
bond_coeff    4  harmonic  1.506  4.095 # ester--tail
bond_coeff    5  harmonic  1.506  4.050 # tail--tail
# dipole bond coeffs:  K [kcal/mol] gamma0 [degrees]
bond_coeff    6  dipole    1.195  0.000 # glycerolDipole-phosphate, esterDipole-tail

# angle coeffs: K [kcal/mol] theta0 [degrees]
angle_coeff    1  3.5851  115.00 # choline-phosphate-glycerol
angle_coeff    2  3.5851  160.00 # phosphate-glycerol-ester
angle_coeff    3  3.5851  180.00 # glycerol-ester-tail, tail-tail-tail (saturated)
angle_coeff    4  3.5851  120.00 # tail-tail-tail (unsaturated)

special_bonds	lj/coul 0.0 1.0 1.0
velocity	all create 0.0 87287

neighbor	1 bin
neigh_modify	delay 2

group		lipids type 2 3 4 5 6
1920 atoms in group lipids
group		water type 1
4232 atoms in group water

fix		integrate all nve/sphere update dipole
fix 		tempLip lipids langevin 303.15 303.15 100.0 48279 omega yes
fix 		tempWat water langevin 303.15 303.15 100.0 48279 omega yes
fix             removeMomentum all momentum 1 linear 1 1 1

compute		erot all erotate/sphere
thermo_style	custom step etotal pe epair c_erot press temp
thermo		100
dump		trj all custom 500 dump.trj id type mol x y z mux muy muz
dump_modify	trj sort id

timestep	1
run		1000
Step TotEng PotEng E_pair erot Press Temp
0   -40155.061   -40155.061   -42127.201            0   -636.04991            0
Averages over the last 6 of 11 rows, steps 500 to 1000:
TotEng PotEng E_pair erot Press Temp
-34514.2 -40115.1 -42057.1 5577.91 266.713 305.478
Loop time of 11.3618 on 8 procs for 1000 steps with 6152 atoms

Pair  time (%) = 7.13636 (62.8101)
Bond  time (%) = 0.0425639 (0.374623)
Neigh time (%) = 0.0791928 (0.697009)
Comm  time (%) = 3.71016 (32.6547)
Outpt time (%) = 0.0335301 (0.295112)
Other time (%) = 0.359998 (3.16849)

timestep	2
run		1000
Step TotEng PotEng E_pair erot Press Temp
1000   -34568.137    -40149.57   -42073.288    5538.6305    297.65941    304.41476
Averages over the last 6 of 11 rows, steps 1500 to 2000:
TotEng PotEng E_pair erot Press Temp
-34439.5 -39987.2 -41945.3 5548.12 251.793 302.575
Loop time of 10.8852 on 8 procs for 1000 steps with 6152 atoms

Pair  time (%) = 7.07324 (64.9801)
Bond  time (%) = 0.0428112 (0.393296)
Neigh time (%) = 0.166238 (1.52719)
Comm  time (%) = 3.22046 (29.5856)
Outpt time (%) = 0.0334353 (0.307162)
Other time (%) = 0.34905 (3.20664)

timestep	5
run		1000
Step TotEng PotEng E_pair erot Press Temp
2000   -34384.499   -40048.158   -41991.223    5582.7167    213.52542    308.89945
Averages over the last 6 of 11 rows, steps 2500 to 3000:
TotEng PotEng E_pair erot Press Temp
-34331.1 -39894.7 -41881 5570.79 212.307 303.441
Loop time of 11.2009 on 8 procs for 1000 steps with 6152 atoms

Pair  time (%) = 6.81819 (60.872)
Bond  time (%) = 0.0409955 (0.366003)
Neigh time (%) = 0.381864 (3.40923)
Comm  time (%) = 3.5695 (31.8681)
Outpt time (%) = 0.0334368 (0.29852)
Other time (%) = 0.35688 (3.18618)

timestep	10
run		1000
Step TotEng PotEng E_pair erot Press Temp
3000   -34464.049   -39920.788   -41936.094    5570.7626    124.74707    297.61384
Averages over the last 6 of 11 rows, steps 3500 to 4000:
TotEng PotEng E_pair erot Press Temp
-34328.7 -39900.7 -41935.4 5578.23 182.951 303.898
Loop time of 11.9201 on 8 procs for 1000 steps with 6152 atoms

Pair  time (%) = 6.81357 (57.1601)
Bond  time (%) = 0.0409541 (0.343571)
Neigh time (%) = 0.742531 (6.22921)
Comm  time (%) = 3.93241 (32.9896)
Outpt time (%) = 0.0334724 (0.280806)
Other time (%) = 0.357213 (2.99672)

fix		baro all press/berendsen aniso 1 1 500 modulus 22222
run		1000
Step TotEng PotEng E_pair erot Press Temp
4000   -34358.271   -39885.931   -41920.529    5599.6309    232.41665    301.48194
Averages over the last 6 of 11 rows, steps 4500 to 5000:
TotEng PotEng E_pair erot Press Temp
-34119.3 -39670.7 -41655.4 5564.69 -0.278854 302.773
Loop time of 12.2419 on 8 procs for 1000 steps with 6152 atoms

Pair  time (%) = 7.00879 (57.2526)
Bond  time (%) = 0.0498146 (0.40692)
Neigh time (%) = 0.790935 (6.46091)
Comm  time (%) = 3.95798 (32.3315)
Outpt time (%) = 0.0334755 (0.273451)
Other time (%) = 0.400876 (3.27463)
