LAMMPS (30 Sep 2013)
# Reference: M. Orsi, Comparative assessment of the ELBA coarse-grained
# model for water, Molecular Physics, DOI:10.1080/00268976.2013.844373

units real
atom_style hybrid sphere dipole

lattice	sc 3.1
Lattice spacing in x,y,z = 3.1 3.1 3.1
region box block -10 10 -10 10 -10 10
create_box 1 box
Created orthogonal box = (-31 -31 -31) to (31 31 31)
create_atoms 1 box
Created 8000 atoms

set group all dipole/random 1234 0.541 # moment/(e*angstrom)
  8000 settings made for dipole/random

pair_style lj/sf/dipole/sf 12. # rCut/angstrom
pair_coeff 1 1 0.55 3.05 # epsilon_ij/(kcal/mol), sigma_ij/angstrom

variable Mass equal 18.0153 # g/mol
mass 1 18.015299999999999869
set group all mass 18.015299999999999869
  8000 settings made for mass

variable Inertia equal 30.0 # amu*A^2
variable Diameter equal 2*sqrt(5*30/(2*18.015299999999999869))
set group all diameter 4.0807489547189668144
  8000 settings made for diameter

variable Nrun equal 2000
variable Nf equal  2000/20
variable Ne equal 10
variable Nr equal 100/10
variable Nr_RDF equal 0.5*2000/10
variable Ndump equal 2000/2

variable watMoleMass equal 18.0153 # /(g/mol)
variable nAvog equal 6.0221415e23 # Avogadro's number
variable watMoleculeMass equal (18.015299999999999869/6.02214150000000031e+23)
variable A3_in_cm3 equal 1e-24 # Angstrom^3 in cm^3

variable Text equal 298
variable Pext equal 1.0

velocity all create 298 1234

neighbor 2 bin
neigh_modify every 1 delay 0 check yes

timestep 10

fix integrate all nve/sphere update dipole
fix thermostat all langevin 298 298 1000 1234 omega yes zero yes
fix barostat all press/berendsen iso 1 1 1000 modulus 21740
fix removeMomentum all momentum 1 linear 1 1 1

compute totT all temp/sphere dof all
fix totT all ave/time 10 10 100 c_totT

compute	rotT all temp/sphere dof rotate
fix rotT all ave/time 10 10 100 c_rotT

variable P equal press
fix PAve all ave/time 10 10 100 v_P

variable PE equal pe
fix PEAve all ave/time 10 10 100 v_PE file out.PEAve

variable Dens equal atoms*2.9915105780892061999e-23/(vol*9.999999999999999237e-25)
fix DensAve all ave/time 10 10 100 v_Dens file out.DensAve

compute	MSD all msd com yes
fix MSD all ave/time 1 1 100 c_MSD[4] file out.MSD

compute RDF all rdf 1000
fix RDF all ave/time 10 100 2000 c_RDF file out.RDF mode vector

thermo_style custom step temp f_totT f_rotT press f_PAve pe f_PEAve 	     f_DensAve c_MSD[4]
thermo_modify norm yes flush yes
thermo 100

dump trj all custom 1000 dump.*.trj id type x y z mux muy muz
dump_modify trj sort id pad 6

run 2000
Step Temp totT rotT Press PAve PotEng PEAve DensAve MSD[4]
0          298            0            0    14797.146            0   -2.6097067            0            0 1.1646432e-26
Averages over the last 11 of 21 rows, steps 1000 to 2000:
Temp totT rotT Press PAve PotEng PEAve DensAve MSD[4]
299.297 298.74 298.839 -32.1275 -3.23 -9.3101 -9.31193 0.999386 26.6614
Loop time of 296.392 on 1 procs for 2000 steps with 8000 atoms

Pair  time (%) = 265.33 (89.5201)
Neigh time (%) = 19.2917 (6.50886)
Comm  time (%) = 1.25726 (0.424187)
Outpt time (%) = 0.0495899 (0.0167312)
Other time (%) = 10.463 (3.53014)
