LAMMPS (28 May 2012)
units		real
atom_style	hybrid angle dipole sphere
read_data 	data.4dopc4dope256wat
  orthogonal box = (-8.5 -8.5 -31.5) to (8.5 8.5 31.5)
  376 atoms
  112 bonds
  128 angles
include 	forcefield.elba
pair_style dipole/sf 12.0
special_bonds lj/coul 0.0 1.0 1.0
bond_style harmonic
angle_style hybrid cosine/squared dipole

mass    1   40.000
mass    2   90.000
mass    3   90.000
mass    4   62.000
mass    5   62.000
mass    6   42.000
mass    7   42.000

set type 1 diameter 5.0 # wat dipole
  256 settings made for diameter
set type 4 diameter 12.7 # gly dipole
  8 settings made for diameter
set type 5 diameter 12.7 # est dipole
  16 settings made for diameter

pair_coeff    1    1	  0.550  3.050 # wat-wat
pair_coeff    1    2	  0.725  4.225 # wat-cho
pair_coeff    1    3	  0.943  4.125 # wat-pho
pair_coeff    1    4	  0.651  3.825 # wat-gly
pair_coeff    1    5	  0.710  3.825 # wat-est
pair_coeff    1    6	  0.554  3.775 # wat-tail
pair_coeff    1    7	  0.609  3.775 # wat-ami
pair_coeff    2    2	  1.434  5.400 # cho-cho
pair_coeff    2    3	  1.434  5.300 # cho-pho
pair_coeff    2    4	  1.171  5.000 # cho-gly
pair_coeff    2    5	  1.171  5.000 # cho-est
pair_coeff    2    6	  1.095  4.950 # cho-tail
pair_coeff    2    7	  1.095  4.950 # cho-ami
pair_coeff    3    3	  1.434  5.200 # pho-pho
pair_coeff    3    4	  1.171  4.900 # pho-gly
pair_coeff    3    5	  1.171  4.900 # pho-est
pair_coeff    3    6	  1.095  4.850 # pho-tail
pair_coeff    3    7	  1.424  4.850 # pho-ami
pair_coeff    4    4	  0.956  4.600 # gly-gly
pair_coeff    4    5	  0.956  4.600 # gly-est
pair_coeff    4    6	  0.894  4.550 # gly-tail
pair_coeff    4    7	  0.984  4.550 # gly-ami
pair_coeff    5    5	  0.956  4.600 # est-est
pair_coeff    5    6	  0.894  4.550 # est-tail
pair_coeff    5    7	  1.163  4.550 # est-ami
pair_coeff    6    6	  0.837  4.500 # tail-tail
pair_coeff    6    7	  0.837  4.500 # tail-ami
pair_coeff    7    7	  0.837  4.500 # ami-ami

bond_coeff    1    1.506  4.770 # cho-pho
bond_coeff    2    1.506  4.410 # pho-gly
bond_coeff    3    1.506  4.140 # gly-est
bond_coeff    4    1.506  4.095 # est-tail
bond_coeff    5    1.506  4.050 # tail-tail
bond_coeff    6    1.506  4.365 # ami-pho

angle_coeff    1  cosine/squared   3.585  115.00
angle_coeff    2  cosine/squared   3.585   90.00
angle_coeff    3  cosine/squared   3.585  180.00
angle_coeff    4  cosine/squared   3.585  120.00
angle_coeff    5  dipole           1.195    0.00

replicate	4 4 1
  orthogonal box = (-8.5 -8.5 -31.5) to (59.5 59.5 31.5)
  6016 atoms
  1792 bonds
  2048 angles

velocity	all create 0.0 87287

variable	nLips equal 128 # total number of lipids
variable	nWats equal 4096 # total number of waters
variable	watVol equal 30.0 # water molecular volume (~30 A^3)
variable	atmA__in__mN_m equal 0.01013 # 1 atm*A = 0.01013 mN/m

variable	Nnvt equal 1000
variable	Nnpt equal 100000
variable	Nthe equal 10000
variable	Ndum equal 1000
variable	Ne equal 10
variable	Nthe_e equal 10000/10
variable	Nres equal 110000

group		lip type 2 3 4 5 6 7
1920 atoms in group lip
group		head type 2 3 7
256 atoms in group head
group		wat type 1
4096 atoms in group wat
group		chol type 2
64 atoms in group chol
group		phos type 3
128 atoms in group phos
group		gly type 4
128 atoms in group gly
group		est type 5
256 atoms in group est
group		tail type 6
1280 atoms in group tail
group		ami type 7
64 atoms in group ami

neighbor	1 bin
neigh_modify	delay 0
fix		integrate all nve/sphere update dipole

fix 		thermo all langevin 303 303 100 9 omega yes zero yes

fix             removeMomentum all momentum 100 linear 1 1 1 # angular

dump		trj all custom 1000 dump.trj id type mol x y z mux muy muz
dump_modify	trj sort id

timestep	0.01
run		1000
Step Temp E_pair E_mol TotEng Press
0            0    1224661.1    12447.942      1237109      1257067
Loop time of 5.64278 on 12 procs for 1000 steps with 6016 atoms

Pair  time (%) = 4.09358 (72.5455)
Bond  time (%) = 0.0184616 (0.327171)
Neigh time (%) = 0 (0)
Comm  time (%) = 1.33965 (23.741)
Outpt time (%) = 0.0157879 (0.279789)
Other time (%) = 0.175297 (3.10658)

timestep	0.1
run		1000
Step Temp E_pair E_mol TotEng Press
1000    182.91268      1221793    12375.332    1237447.9    1255822.5
Loop time of 6.07436 on 12 procs for 1000 steps with 6016 atoms

Pair  time (%) = 4.20897 (69.2907)
Bond  time (%) = 0.0186521 (0.307062)
Neigh time (%) = 0.0369951 (0.609036)
Comm  time (%) = 1.61532 (26.5924)
Outpt time (%) = 0.0159282 (0.26222)
Other time (%) = 0.178497 (2.93854)

timestep	1
run		1000
Step Temp E_pair E_mol TotEng Press
2000    15335.698    52516.628     11952.67     339431.8    134490.48
Loop time of 5.20735 on 12 procs for 1000 steps with 6016 atoms

Pair  time (%) = 3.7872 (72.7279)
Bond  time (%) = 0.0187264 (0.359615)
Neigh time (%) = 0.0760645 (1.46071)
Comm  time (%) = 1.14563 (22.0003)
Outpt time (%) = 0.0159712 (0.306705)
Other time (%) = 0.16376 (3.14479)

timestep	2
run		1000
Step Temp E_pair E_mol TotEng Press
3000    309.77808   -44422.659    5373.8712     -33494.6    1350.1003
Loop time of 5.13647 on 12 procs for 1000 steps with 6016 atoms

Pair  time (%) = 3.78641 (73.7161)
Bond  time (%) = 0.0189001 (0.36796)
Neigh time (%) = 0.0818796 (1.59408)
Comm  time (%) = 1.06968 (20.8252)
Outpt time (%) = 0.015882 (0.309201)
Other time (%) = 0.163723 (3.18746)

timestep	5
run		1000
Step Temp E_pair E_mol TotEng Press
4000    304.31007   -47261.185    3765.2055    -38039.83    262.65702
Loop time of 5.54591 on 12 procs for 1000 steps with 6016 atoms

Pair  time (%) = 3.90149 (70.349)
Bond  time (%) = 0.0191486 (0.345275)
Neigh time (%) = 0.208189 (3.75392)
Comm  time (%) = 1.23267 (22.2267)
Outpt time (%) = 0.0158388 (0.285595)
Other time (%) = 0.168572 (3.03957)

unfix 		thermo
fix 		thermo all langevin 303 303 1000 9 omega yes zero yes

# compute and average area and volume per lipid:
variable	lipArea equal lx*ly/(128/2)
fix		lipArea lip ave/time 10 1000 10000 v_lipArea
variable	lipVol equal (vol-(4096*30))/128
fix		lipVol lip ave/time 10 1000 10000 v_lipVol

# compute and average pressure:
variable	P equal press
fix 		P all ave/time 10 1000 10000 v_P

# compute and average total (translational + rotational) temperature:
compute 	tempTot all temp/sphere dof all
fix 		tempTot all ave/time 10 1000 10000 c_tempTot
#compute_modify  tempTot extra 3 # default -> no effect

# compute and average rotational temperature:
compute 	tempRot all temp/sphere dof rotate
fix 		tempRot all ave/time 10 1000 10000 c_tempRot

thermo_style custom step press f_P temp f_tempTot f_tempRot f_lipArea f_lipVol
#thermo_modify   temp tempTot
thermo		10000

# equilibrate:
timestep	10
run		1000
Step Press P Temp tempTot tempRot lipArea lipVol
5000    146.08497            0    307.62038            0            0            0            0
Loop time of 6.27177 on 12 procs for 1000 steps with 6016 atoms

Pair  time (%) = 4.12604 (65.7875)
Bond  time (%) = 0.0196149 (0.312749)
Neigh time (%) = 0.439731 (7.01128)
Comm  time (%) = 1.5017 (23.9437)
Outpt time (%) = 0.015919 (0.25382)
Other time (%) = 0.168765 (2.69087)

run		1000
Step Press P Temp tempTot tempRot lipArea lipVol
6000   -43.881863            0     307.3032            0            0            0            0
Loop time of 6.47961 on 12 procs for 1000 steps with 6016 atoms

Pair  time (%) = 4.14137 (63.9139)
Bond  time (%) = 0.0197249 (0.304415)
Neigh time (%) = 0.434256 (6.70189)
Comm  time (%) = 1.69828 (26.2096)
Outpt time (%) = 0.0159754 (0.246548)
Other time (%) = 0.170002 (2.62365)

run		1000
Step Press P Temp tempTot tempRot lipArea lipVol
7000   -72.225138            0    302.85647            0            0            0            0
Loop time of 6.36062 on 12 procs for 1000 steps with 6016 atoms

Pair  time (%) = 4.13347 (64.9854)
Bond  time (%) = 0.0196419 (0.308804)
Neigh time (%) = 0.436235 (6.85837)
Comm  time (%) = 1.58673 (24.9461)
Outpt time (%) = 0.0160029 (0.251593)
Other time (%) = 0.168542 (2.64977)

run		1000
Step Press P Temp tempTot tempRot lipArea lipVol
8000   -152.72521            0    302.73837            0            0            0            0
Loop time of 6.44613 on 12 procs for 1000 steps with 6016 atoms

Pair  time (%) = 4.14547 (64.3094)
Bond  time (%) = 0.0197687 (0.306676)
Neigh time (%) = 0.439413 (6.81669)
Comm  time (%) = 1.65322 (25.6467)
Outpt time (%) = 0.0160029 (0.248255)
Other time (%) = 0.17226 (2.6723)

run		1000
Step Press P Temp tempTot tempRot lipArea lipVol
9000   -241.38403            0    299.27565            0            0            0            0
Loop time of 6.2663 on 12 procs for 1000 steps with 6016 atoms

Pair  time (%) = 4.14453 (66.14)
Bond  time (%) = 0.0197407 (0.315029)
Neigh time (%) = 0.434475 (6.93352)
Comm  time (%) = 1.48098 (23.6341)
Outpt time (%) = 0.0159919 (0.255204)
Other time (%) = 0.17058 (2.72217)

fix		baro all press/berendsen aniso 1 1 1000 couple xy modulus 21740

# compute and average surface tension (gamma) per monolayer:
variable	gamma equal (0.5*lz*(pzz-0.5*(pxx+pyy))/3)*0.010130000000000000115
fix	gamma all ave/time 10 1000 10000 v_gamma file gamma.dat

# compute and average interface area (bilayer assumed parallel to xy plane):
variable	xyArea equal lx*ly
fix 		xyArea all ave/time 1 1 10 v_xyArea file xyArea.dat

# compute and average box volume:
variable	boxVol equal vol
fix 		boxVol all ave/time 1 1 10 v_boxVol file boxVol.dat

restart		110000 restart

run 		100000
Step Press P Temp tempTot tempRot lipArea lipVol
10000   -3.4646367            0    303.72756            0            0            0            0
Averages over the last 6 of 11 rows, steps 60000 to 110000:
Press P Temp tempTot tempRot lipArea lipVol
-23.2073 0.271933 304.797 303.102 302.679 68.8707 1295
Loop time of 973.029 on 12 procs for 100000 steps with 6016 atoms

Pair  time (%) = 627.511 (64.4905)
Bond  time (%) = 3.88098 (0.398855)
Neigh time (%) = 65.8812 (6.77073)
Comm  time (%) = 240.982 (24.7662)
Outpt time (%) = 1.78954 (0.183915)
Other time (%) = 32.984 (3.38982)
