LAMMPS (16 Dec 2011)
units		real
atom_style	hybrid angle dipole sphere
read_data 	data.singleLipid
  orthogonal box = (-60 -60 -60) to (60 60 60)
  15 atoms
  14 bonds
  16 angles
include 	forcefield.stiff
pair_style dipole/sf 12
special_bonds lj/coul 0.0 1.0 1.0
bond_style harmonic
angle_style hybrid cosine/squared dipole

mass    1   40.000
mass    2   90.000
mass    3   90.000
mass    4   62.000
mass    5   62.000
mass    6   42.000

pair_coeff    1    1	  0.1 3.000
pair_coeff    1    2	  0.1 4.100
pair_coeff    1    3	  0.1 4.100
pair_coeff    1    4	  0.1 3.800
pair_coeff    1    5	  0.1 3.800
pair_coeff    1    6	  0.1 3.750
pair_coeff    2    2	  0.1 5.200
pair_coeff    2    3	  0.1 5.200
pair_coeff    2    4	  0.1 4.900
pair_coeff    2    5	  0.1 4.900
pair_coeff    2    6	  0.1 4.850
pair_coeff    3    3	  0.1 5.200
pair_coeff    3    4	  0.1 4.900
pair_coeff    3    5	  0.1 4.900
pair_coeff    3    6	  0.1 4.850
pair_coeff    4    4	  0.1 4.600
pair_coeff    4    5	  0.1 4.600
pair_coeff    4    6	  0.1 4.550
pair_coeff    5    5	  0.1 4.600
pair_coeff    5    6	  0.1 4.550
pair_coeff    6    6	  0.1 4.500

bond_coeff    1     1506.0  4.680
bond_coeff    2     1506.0  4.410
bond_coeff    3     1506.0  4.140
bond_coeff    4     1506.0  4.095
bond_coeff    5     1506.0  4.050

angle_coeff    1  cosine/squared 35851  115.00
angle_coeff    2  cosine/squared 35851  160.00
angle_coeff    3  cosine/squared 35851  180.00
angle_coeff    4  cosine/squared 35851  120.00
angle_coeff    5  dipole   1000.0  0.0

velocity	all create 0.0 87287

neighbor	2 bin
neigh_modify 	delay 0

fix		1 all nve/sphere update dipole
fix 		2 all langevin 303.15 303.15 10.0 48279 omega yes

thermo		100

dump		1 all custom 10 dump.trj id type mol x y z mux muy muz
dump_modify	1 sort id

timestep	0.1
run		1000
Step Temp E_pair E_mol TotEng Press
0            0    318812.67    222918.08    541730.75    51600.193
Averages over the last 6 of 11 rows, steps 500 to 1000:
Temp E_pair E_mol TotEng Press
12756.3 42.7134 1176.77 1751.82 13.1057
Loop time of 0.0609703 on 4 procs for 1000 steps with 15 atoms

Pair  time (%) = 0.00127923 (2.09813)
Bond  time (%) = 0.00105494 (1.73026)
Neigh time (%) = 0.0002653 (0.43513)
Comm  time (%) = 0.0318358 (52.2152)
Outpt time (%) = 0.0116455 (19.1003)
Other time (%) = 0.0148895 (24.421)
