LAMMPS (28 May 2012)
units		real
atom_style	hybrid sphere dipole

lattice		fcc 4.934
Lattice spacing in x,y,z = 4.934 4.934 4.934
region		box block -3 3 -3 3 -3 3
create_box	1 box
Created orthogonal box = (-14.802 -14.802 -14.802) to (14.802 14.802 14.802)
create_atoms	1 box
Created 864 atoms

mass 		1 40.0
set		group all mass 40.0 # g/mol
  864 settings made for mass
set		group all diameter 5.0 # => moment of inertia
  864 settings made for diameter
set		group all dipole/random 98934 0.541 # moment/(e*angstrom)
  864 settings made for dipole/random
velocity	all create 303.15 87287
pair_style	dipole/sf 12. # rCut/angstrom
pair_coeff	* * 0.550 3.05 # epsilon_ij/(kcal/mol), sigma_ij/angstrom

variable	Nnvt equal 1000
variable	Nnpt equal 1000
variable	Ntot equal 1000+1000
variable	Nthe equal 100
variable	Ndump equal 100
variable	Ne equal 10
variable	Nf equal 100
variable	Nthe_e equal 100/10

variable	watMoleMass equal 18.0 # /(g/mol)
variable	nAvog equal 6.0221415e23 # Avogadro's number

neighbor	1 bin
neigh_modify	delay 0

fix		integrate all nve/sphere update dipole
fix 		thermostat all langevin 303 303 500 9 omega yes zero yes
#fix_modify	thermostat temp totTemp
fix             removeMomentum all momentum 100 linear 1 1 1

compute		msd all msd com yes
fix 		msd all ave/time 1 1 100 c_msd[4] file wat.msd
variable	potEn equal pe/atoms

compute 	totT all temp/sphere dof all
fix		totT all ave/time 10 10 100 c_totT
#compute	totP all pressure totT

compute 	rotT all temp/sphere dof rotate
fix		rotT all ave/time 10 10 100 c_rotT

fix		potEn all ave/time 10 10 100 v_potEn file wat.potEn
variable	totEn equal etotal/atoms

fix		totEn all ave/time 10 10 100 v_totEn file wat.totEn

# Compute density in g/cm^3:
variable	dens equal atoms*2.9889699536286220708e-23/(vol*9.999999999999999237e-25)
fix		dens all ave/time 10 10 100 v_dens file wat.dens

variable	P equal press
fix 		P all ave/time 10 10 100 v_P file wat.press

thermo_style    custom step temp f_totT f_rotT press f_P pe v_potEn 		v_dens c_msd[4]
#thermo_modify	temp totTemp norm yes
thermo		100

dump		trj all custom 100 dump.*.trj id type x y z mux muy muz
dump_modify	trj sort id pad 12

timestep	10
run		1000
Step Temp totT rotT Press P PotEng potEn dens msd[4]
0       303.15            0            0   -6593.8402            0   -3753.3669   -4.3441746   0.99536899 2.323031e-29
Averages over the last 6 of 11 rows, steps 500 to 1000:
Temp totT rotT Press P PotEng potEn dens msd[4]
299.638 302.024 304.128 22.4658 -86.1909 -8023.35 -9.28628 0.995369 6.31706
Loop time of 3.54415 on 4 procs for 1000 steps with 864 atoms

Pair  time (%) = 2.83448 (79.9763)
Neigh time (%) = 0.233902 (6.59965)
Comm  time (%) = 0.380158 (10.7263)
Outpt time (%) = 0.0210358 (0.593535)
Other time (%) = 0.0745735 (2.10413)

fix		barostat all press/berendsen iso 1 1 500 modulus 21740

compute         rdf all rdf 10
fix         	rdf all ave/time 2000 1 2000 c_rdf 		file wat.rdf mode vector

Step Temp totT rotT Press P PotEng potEn dens msd[4]
1000    297.47898    306.19368    307.81348    297.41801   -35.038327   -8032.3397   -9.2966894   0.99536899     8.097937
Averages over the last 6 of 11 rows, steps 1500 to 2000:
Temp totT rotT Press P PotEng potEn dens msd[4]
300.681 302.234 304.117 -53.7758 14.738 -8057.99 -9.32637 0.996026 12.2956
Loop time of 3.52191 on 4 procs for 1000 steps with 864 atoms

Pair  time (%) = 2.8322 (80.4165)
Neigh time (%) = 0.223834 (6.35546)
Comm  time (%) = 0.359531 (10.2084)
Outpt time (%) = 0.0209407 (0.594582)
Other time (%) = 0.0854077 (2.42504)
