LAMMPS (28 May 2012)
units		real
atom_style	hybrid angle dipole sphere
read_data 	data.singleLipid
  orthogonal box = (-20 -20 -20) to (40 40 40)
  15 atoms
  14 bonds
  16 angles
include 	forcefield.elba
pair_style dipole/sf 12.0
special_bonds lj/coul 0.0 1.0 1.0
bond_style harmonic
angle_style hybrid cosine/squared dipole

#   atomType  mass
mass    1   40.000  # wat
mass    2   90.000  # chol
mass    3   90.000  # phos
mass    4   62.000  # glyc
mass    5   62.000  # est
mass    6   42.000  # tail

# Set diameters. These values are in turn used to obtain the moment of
# inertia, used in the rotational integration.
set type 1 diameter 5.0 # wat dipole
  0 settings made for diameter
set type 4 diameter 12.7 # gly dipole
  1 settings made for diameter
set type 5 diameter 12.7 # est dipole
  2 settings made for diameter

# Lennard-Jones coefficients:
#           iType jType	  eps_ij sig_ij
pair_coeff    1    1	  0.550  3.050 # wat-wat
pair_coeff    1    2	  0.725  4.225 # wat-chol
pair_coeff    1    3	  0.943  4.125 # wat-phos
pair_coeff    1    4	  0.651  3.825 # wat-gly
pair_coeff    1    5	  0.710  3.825 # wat-est
pair_coeff    1    6	  0.554  3.775 # wat-tail
pair_coeff    2    2	  1.434  5.400 # chol-chol
pair_coeff    2    3	  1.434  5.300 # chol-phos
pair_coeff    2    4	  1.171  5.000 # chol-gly
pair_coeff    2    5	  1.171  5.000 # chol-est
pair_coeff    2    6	  1.095  4.950 # chol-tail
pair_coeff    3    3	  1.434  5.200 # phos-phos
pair_coeff    3    4	  1.171  4.900 # phos-gly
pair_coeff    3    5	  1.171  4.900 # phos-est
pair_coeff    3    6	  1.095  4.850 # phos-tail
pair_coeff    4    4	  0.956  4.600 # gly-gly
pair_coeff    4    5	  0.956  4.600 # gly-est
pair_coeff    4    6	  0.894  4.550 # gly-tail
pair_coeff    5    5	  0.956  4.600 # est-est
pair_coeff    5    6	  0.894  4.550 # est-tail
pair_coeff    6    6	  0.837  4.500 # tail-tail

# harmonic bond coefficients:
#         bondType   K     r0
bond_coeff    1    1.506  4.770 # chol--phos
bond_coeff    2    1.506  4.410 # phos--gly
bond_coeff    3    1.506  4.140 # gly--est
bond_coeff    4    1.506  4.095 # est--tail
bond_coeff    5    1.506  4.050 # tail--tail

# angle coefficients:
#	  angleType	             K    theta0
angle_coeff    1  cosine/squared   3.585  115.00 # chol-phos-gly
angle_coeff    2  cosine/squared   3.585   90.00 # phos-gly-est
angle_coeff    3  cosine/squared   3.585  180.00 # gly-est-tail, tail-tail
angle_coeff    4  cosine/squared   3.585  120.00 # tail-tail-tail (unsat)
# dipole angle coefficients:
#	  angleType	   K   gamma0
angle_coeff    5  dipole 1.195  0.00 # glyDip-phos, estDip-tail

velocity	all create 0.0 87287

neighbor	2 bin
neigh_modify 	delay 0

fix		1 all nve/sphere update dipole
fix 		2 all langevin 303.15 303.15 100.0 48279 omega yes

thermo		100

dump		1 all custom 100 dump.trj id type mol x y z mux muy muz
dump_modify	1 sort id

timestep	10
run		10000
Step Temp E_pair E_mol TotEng Press
0            0     113.7091    100.80778    214.51688    269.55197
Averages over the last 51 of 101 rows, steps 5000 to 10000:
Temp E_pair E_mol TotEng Press
328.664 -24.967 12.4164 1.16501 -0.155342
Loop time of 0.102292 on 1 procs for 10000 steps with 15 atoms

Pair  time (%) = 0.0373018 (36.466)
Bond  time (%) = 0.0175476 (17.1544)
Neigh time (%) = 0.00296021 (2.89388)
Comm  time (%) = 0.00518918 (5.07291)
Outpt time (%) = 0.00465918 (4.55478)
Other time (%) = 0.0346341 (33.8581)
