LAMMPS (16 Dec 2011)
units		real
atom_style	hybrid angle dipole sphere
read_data 	data.singleLipid
  orthogonal box = (-20 -20 -20) to (40 40 40)
  15 atoms
  14 bonds
  16 angles
include 	forcefield.elba
pair_style dipole/sf 12
special_bonds lj/coul 0.0 1.0 1.0
bond_style harmonic
angle_style hybrid cosine/squared dipole

#    type  mass [grams/mol]
mass    1   40.000 # water
mass    2   90.000 # choline
mass    3   90.000 # phosphate
mass    4   62.000 # glycerol
mass    5   62.000 # ester
mass    6   42.000 # tail

# LJ coeffs: iType jType epsilon_ij [kcal/mol] sigma_ij [angstrom]
pair_coeff    1    1	  0.466  3.000 # water-water
pair_coeff    1    2	  0.585  4.100 # water-choline
pair_coeff    1    3	  1.054  4.100 # water-phosphate
pair_coeff    1    4	  0.574  3.800 # water-glycerol
pair_coeff    1    5	  0.765  3.800 # water-ester
pair_coeff    1    6	  0.447  3.750 # water-tail
pair_coeff    2    2	  1.434  5.200 # choline-choline
pair_coeff    2    3	  1.434  5.200 # choline-phosphate
pair_coeff    2    4	  1.171  4.900 # choline-glycerol
pair_coeff    2    5	  1.171  4.900 # choline-ester
pair_coeff    2    6	  1.095  4.850 # choline-tail
pair_coeff    3    3	  1.434  5.200 # phosphate-phosphate
pair_coeff    3    4	  1.171  4.900 # phosphate-glycerol
pair_coeff    3    5	  1.171  4.900 # phosphate-ester
pair_coeff    3    6	  1.095  4.850 # phosphate-tail
pair_coeff    4    4	  0.956  4.600 # glycerol-glycerol
pair_coeff    4    5	  0.956  4.600 # glycerol-ester
pair_coeff    4    6	  0.894  4.550 # glycerol-tail
pair_coeff    5    5	  0.956  4.600 # ester-ester
pair_coeff    5    6	  0.894  4.550 # ester-tail
pair_coeff    6    6	  0.837  4.500 # tail-tail

# harmonic bond coeffs:  K [kcal/(mol*angstrom^2)] r0 [angstrom]
bond_coeff    1   1.506  4.680 # choline--phosphate
bond_coeff    2   1.506  4.410 # phosphate--glycerol
bond_coeff    3   1.506  4.140 # glycerol--ester
bond_coeff    4   1.506  4.095 # ester--tail
bond_coeff    5   1.506  4.050 # tail--tail

# angle coeffs: K [kcal/mol] theta0 [degrees]
angle_coeff 1 cosine/squared 3.5851 115.00 # choline-phosphate-glycerol
angle_coeff 2 cosine/squared 3.5851 160.00 # phosphate-glycerol-ester
angle_coeff 3 cosine/squared 3.5851 180.00 # gly-est-tail, tail-tail-tail (sat)
angle_coeff 4 cosine/squared 3.5851 120.00 # tail-tail-tail (unsat)
# dipole angle coeffs:  K [kcal/mol] gamma0 [degrees]
angle_coeff 5  dipole    1.195  0.000 # glyDipole-phosphate, estDipole-tail

velocity	all create 0.0 87287

neighbor	2 bin
neigh_modify 	delay 0

fix		1 all nve/sphere update dipole
fix 		2 all langevin 303.15 303.15 100.0 48279 omega yes

thermo		100

dump		1 all custom 100 dump.trj id type mol x y z mux muy muz
dump_modify	1 sort id

timestep	10
run		10000
Step Temp E_pair E_mol TotEng Press
0            0   -7.1455948    17.059812    9.9142172    2.0089601
Averages over the last 51 of 101 rows, steps 5000 to 10000:
Temp E_pair E_mol TotEng Press
329.375 -17.4936 14.0121 10.2637 0.387949
Loop time of 0.40932 on 4 procs for 10000 steps with 15 atoms

Pair  time (%) = 0.0151715 (3.70652)
Bond  time (%) = 0.00971448 (2.37332)
Neigh time (%) = 0.00217384 (0.531086)
Comm  time (%) = 0.267298 (65.3031)
Outpt time (%) = 0.0200033 (4.88695)
Other time (%) = 0.0949584 (23.1991)
