LAMMPS (25 Sep 2011)
units		real
atom_style	hybrid angle dipole sphere

read_data 	data.singleLipid
  orthogonal box = (-60 -60 -60) to (60 60 60)
  15 atoms
  14 bonds
  16 angles
include 	forcefield.elba
pair_style dipole/sf 12
bond_style harmonic
angle_style hybrid cosine/squared dipole

#    type  mass [grams/mol]
mass    1   40.000 # water
mass    2   90.000 # choline
mass    3   90.000 # phosphate
mass    4   62.000 # glycerol
mass    5   62.000 # ester
mass    6   42.000 # tail

# LJ coeffs: iType jType epsilon_ij [kcal/mol] sigma_ij [angstrom]
pair_coeff    1    1	  0.466  3.000 # water-water
pair_coeff    1    2	  0.585  4.100 # water-choline
pair_coeff    1    3	  1.054  4.100 # water-phosphate
pair_coeff    1    4	  0.574  3.800 # water-glycerol
pair_coeff    1    5	  0.765  3.800 # water-ester
pair_coeff    1    6	  0.447  3.750 # water-tail
pair_coeff    2    2	  1.434  5.200 # choline-choline
pair_coeff    2    3	  1.434  5.200 # choline-phosphate
pair_coeff    2    4	  1.171  4.900 # choline-glycerol
pair_coeff    2    5	  1.171  4.900 # choline-ester
pair_coeff    2    6	  1.095  4.850 # choline-tail
pair_coeff    3    3	  1.434  5.200 # phosphate-phosphate
pair_coeff    3    4	  1.171  4.900 # phosphate-glycerol
pair_coeff    3    5	  1.171  4.900 # phosphate-ester
pair_coeff    3    6	  1.095  4.850 # phosphate-tail
pair_coeff    4    4	  0.956  4.600 # glycerol-glycerol
pair_coeff    4    5	  0.956  4.600 # glycerol-ester
pair_coeff    4    6	  0.894  4.550 # glycerol-tail
pair_coeff    5    5	  0.956  4.600 # ester-ester
pair_coeff    5    6	  0.894  4.550 # ester-tail
pair_coeff    6    6	  0.837  4.500 # tail-tail

# harmonic bond coeffs:  K [kcal/(mol*angstrom^2)] r0 [angstrom]
bond_coeff    1   1.506  4.680 # choline--phosphate
bond_coeff    2   1.506  4.410 # phosphate--glycerol
bond_coeff    3   1.506  4.140 # glycerol--ester
bond_coeff    4   1.506  4.095 # ester--tail
bond_coeff    5   1.506  4.050 # tail--tail

# angle coeffs: K [kcal/mol] theta0 [degrees]
angle_coeff 1 cosine/squared 3.5851 115.00 # choline-phosphate-glycerol
angle_coeff 2 cosine/squared 3.5851 160.00 # phosphate-glycerol-ester
angle_coeff 3 cosine/squared 3.5851 180.00 # gly-est-tail, tail-tail-tail (sat)
angle_coeff 4 cosine/squared 3.5851 120.00 # tail-tail-tail (unsat)
# dipole angle coeffs:  K [kcal/mol] gamma0 [degrees]
angle_coeff 5  dipole    1.195  0.000 # glyDipole-phosphate, estDipole-tail

special_bonds	lj/coul 0.0 1.0 1.0

velocity	all create 0.0 87287 mom no

neighbor	2 bin
neigh_modify 	delay 0

fix		1 all nve/sphere update dipole
fix 		2 all langevin 303.15 303.15 100.0 48279 omega yes

thermo_style	custom step etotal pe epair press temp
thermo		1000

dump		1 all custom 100 dump.trj id type mol x y z mux muy muz
dump_modify	1 sort id

timestep	0.01
run		10000
Step TotEng PotEng E_pair Press Temp
0    2669836.4    2669836.4    2669792.7    424022.87            0
Averages over the last 6 of 11 rows, steps 5000 to 10000:
TotEng PotEng E_pair Press Temp
630546 13860 -4.35526 15915.5 1.47775e+07
Loop time of 0.0778542 on 1 procs for 10000 steps with 15 atoms

Pair  time (%) = 0.0194311 (24.9584)
Bond  time (%) = 0.015147 (19.4556)
Neigh time (%) = 0.0048542 (6.23499)
Comm  time (%) = 0.00565886 (7.26855)
Outpt time (%) = 0.00459099 (5.89691)
Other time (%) = 0.028172 (36.1856)

timestep	0.1
run		10000
Step TotEng PotEng E_pair Press Temp
10000    367070.49     6743.199   -5.1417694    9328.2286    8634452.8
Averages over the last 6 of 11 rows, steps 15000 to 20000:
TotEng PotEng E_pair Press Temp
3559.12 3138.42 -0.90435 -89.4737 10081
Loop time of 0.064477 on 1 procs for 10000 steps with 15 atoms

Pair  time (%) = 0.00825357 (12.8008)
Bond  time (%) = 0.0151136 (23.4403)
Neigh time (%) = 0.0033288 (5.16277)
Comm  time (%) = 0.00526857 (8.17125)
Outpt time (%) = 0.00448751 (6.95987)
Other time (%) = 0.0280249 (43.465)

timestep	1
run		10000
Step TotEng PotEng E_pair Press Temp
20000    2078.3059    1901.7157    -1.458293    -59.98467    4231.5967
Averages over the last 6 of 11 rows, steps 25000 to 30000:
TotEng PotEng E_pair Press Temp
56.5266 41.9824 -1.09318 -2.91548 348.52
Loop time of 0.0634351 on 1 procs for 10000 steps with 15 atoms

Pair  time (%) = 0.00945067 (14.8982)
Bond  time (%) = 0.0150831 (23.7772)
Neigh time (%) = 0.00115752 (1.82474)
Comm  time (%) = 0.00603342 (9.51117)
Outpt time (%) = 0.00456071 (7.18957)
Other time (%) = 0.0271497 (42.7992)

unfix		2
run		10000Memory usage per processor = 4.25041 Mbytes
Step TotEng PotEng E_pair Press Temp
30000    40.581322    26.918003   -1.8670903   -2.1045754    327.41144
Averages over the last 6 of 11 rows, steps 35000 to 40000:
TotEng PotEng E_pair Press Temp
39.7038 9.15518 -5.93638 0.264932 732.03
Loop time of 0.0563209 on 1 procs for 10000 steps with 15 atoms

Pair  time (%) = 0.0217605 (38.6366)
Bond  time (%) = 0.0150251 (26.6777)
Neigh time (%) = 0.00156641 (2.78122)
Comm  time (%) = 0.00514245 (9.13062)
Outpt time (%) = 0.00457454 (8.12227)
Other time (%) = 0.00825191 (14.6516)
